720
39.6906 19.84503 19.84503
Si    1.362361    7.318252    8.496650
Si   18.482669   12.526778   11.348380
Si    8.560154   12.526778   18.419164
Si   11.284876    7.318252    1.425865
Si   18.482669   17.240767    1.425865
Si    1.362361    2.604263   18.419164
Si   11.284876    2.604263   11.348380
Si    8.560154   17.240767    8.496650
Si    8.496650    1.362361    7.318252
Si   11.348380   18.482669   12.526778
Si   18.419164    8.560154   12.526778
Si    1.425865   11.284876    7.318252
Si    1.425865   18.482669   17.240767
Si   18.419164    1.362361    2.604263
Si   11.348380   11.284876    2.604263
Si    8.496650    8.560154   17.240767
Si    7.318252    8.496650    1.362361
Si   12.526778   11.348380   18.482669
Si   12.526778   18.419164    8.560154
Si    7.318252    1.425865   11.284876
Si   17.240767    1.425865   18.482669
Si    2.604263   18.419164    1.362361
Si    2.604263   11.348380   11.284876
Si   17.240767    8.496650    8.560154
Si    0.690012    4.556220    9.178128
Si   19.155018   15.288809   10.666902
Si    9.232503   15.288809   19.100643
Si   10.612527    4.556220    0.744387
Si   19.155018   14.478735    0.744387
Si    0.690012    5.366295   19.100643
Si   10.612527    5.366295   10.666902
Si    9.232503   14.478735    9.178128
Si    9.178128    0.690012    4.556220
Si   10.666902   19.155018   15.288809
Si   19.100643    9.232503   15.288809
Si    0.744387   10.612527    4.556220
Si    0.744387   19.155018   14.478735
Si   19.100643    0.690012    5.366295
Si   10.666902   10.612527    5.366295
Si    9.178128    9.232503   14.478735
Si    4.556220    9.178128    0.690012
Si   15.288809   10.666902   19.155018
Si   15.288809   19.100643    9.232503
Si    4.556220    0.744387   10.612527
Si   14.478735    0.744387   19.155018
Si    5.366295   19.100643    0.690012
Si    5.366295   10.666902   10.612527
Si   14.478735    9.178128    9.232503
Si    3.133530    9.617497    9.047944
Si   16.711500   10.227533   10.797085
Si    6.788985   10.227533   18.970459
Si   13.056045    9.617497    0.874570
Si   16.711500   19.540012    0.874570
Si    3.133530    0.305018   18.970459
Si   13.056045    0.305018   10.797085
Si    6.788985   19.540012    9.047944
Si    9.047944    3.133530    9.617497
Si   10.797085   16.711500   10.227533
Si   18.970459    6.788985   10.227533
Si    0.874570   13.056045    9.617497
Si    0.874570   16.711500   19.540012
Si   18.970459    3.133530    0.305018
Si   10.797085   13.056045    0.305018
Si    9.047944    6.788985   19.540012
Si    9.617497    9.047944    3.133530
Si   10.227533   10.797085   16.711500
Si   10.227533   18.970459    6.788985
Si    9.617497    0.874570   13.056045
Si   19.540012    0.874570   16.711500
Si    0.305018   18.970459    3.133530
Si    0.305018   10.797085   13.056045
Si   19.540012    9.047944    6.788985
Si    2.028559    2.073012    9.990782
Si   17.816471   17.772018    9.854248
Si    7.893956   17.772018    0.068267
Si   11.951074    2.073012   19.776763
Si   17.816471   11.995527   19.776763
Si    2.028559    7.849503    0.068267
Si   11.951074    7.849503    9.854248
Si    7.893956   11.995527    9.990782
Si    9.990782    2.028559    2.073012
Si    9.854248   17.816471   17.772018
Si    0.068267    7.893956   17.772018
Si   19.776763   11.951074    2.073012
Si   19.776763   17.816471   11.995527
Si    0.068267    2.028559    7.849503
Si    9.854248   11.951074    7.849503
Si    9.990782    7.893956   11.995527
Si    2.073012    9.990782    2.028559
Si   17.772018    9.854248   17.816471
Si   17.772018    0.068267    7.893956
Si    2.073012   19.776763   11.951074
Si   11.995527   19.776763   17.816471
Si    7.849503    0.068267    2.028559
Si    7.849503    9.854248   11.951074
Si   11.995527    9.990782    7.893956
 O    0.382612    7.668715    9.729621
 O   19.462418   12.176315   10.115409
 O    9.539903   12.176315   19.652136
 O   10.305127    7.668715    0.192894
 O   19.462418   17.591230    0.192894
 O    0.382612    2.253800   19.652136
 O   10.305127    2.253800   10.115409
 O    9.539903   17.591230    9.729621
 O    9.729621    0.382612    7.668715
 O   10.115409   19.462418   12.176315
 O   19.652136    9.539903   12.176315
 O    0.192894   10.305127    7.668715
 O    0.192894   19.462418   17.591230
 O   19.652136    0.382612    2.253800
 O   10.115409   10.305127    2.253800
 O    9.729621    9.539903   17.591230
 O    7.668715    9.729621    0.382612
 O   12.176315   10.115409   19.462418
 O   12.176315   19.652136    9.539903
 O    7.668715    0.192894   10.305127
 O   17.591230    0.192894   19.462418
 O    2.253800   19.652136    0.382612
 O    2.253800   10.115409   10.305127
 O   17.591230    9.729621    9.539903
 O    2.760245    8.092208    8.693909
 O   17.084785   11.752822   11.151121
 O    7.162270   11.752822   18.616424
 O   12.682760    8.092208    1.228606
 O   17.084785   18.014723    1.228606
 O    2.760245    1.830307   18.616424
 O   12.682760    1.830307   11.151121
 O    7.162270   18.014723    8.693909
 O    8.693909    2.760245    8.092208
 O   11.151121   17.084785   11.752822
 O   18.616424    7.162270   11.752822
 O    1.228606   12.682760    8.092208
 O    1.228606   17.084785   18.014723
 O   18.616424    2.760245    1.830307
 O   11.151121   12.682760    1.830307
 O    8.693909    7.162270   18.014723
 O    8.092208    8.693909    2.760245
 O   11.752822   11.151121   17.084785
 O   11.752822   18.616424    7.162270
 O    8.092208    1.228606   12.682760
 O   18.014723    1.228606   17.084785
 O    1.830307   18.616424    2.760245
 O    1.830307   11.151121   12.682760
 O   18.014723    8.693909    7.162270
 O    0.650917    7.797112    7.132502
 O   19.194113   12.047918   12.712528
 O    9.271598   12.047918   17.055017
 O   10.573432    7.797112    2.790013
 O   19.194113   17.719627    2.790013
 O    0.650917    2.125403   17.055017
 O   10.573432    2.125403   12.712528
 O    9.271598   17.719627    7.132502
 O    7.132502    0.650917    7.797112
 O   12.712528   19.194113   12.047918
 O   17.055017    9.271598   12.047918
 O    2.790013   10.573432    7.797112
 O    2.790013   19.194113   17.719627
 O   17.055017    0.650917    2.125403
 O   12.712528   10.573432    2.125403
 O    7.132502    9.271598   17.719627
 O    7.797112    7.132502    0.650917
 O   12.047918   12.712528   19.194113
 O   12.047918   17.055017    9.271598
 O    7.797112    2.790013   10.573432
 O   17.719627    2.790013   19.194113
 O    2.125403   17.055017    0.650917
 O    2.125403   12.712528   10.573432
 O   17.719627    7.132502    9.271598
 O    1.562399    5.719536    8.482361
 O   18.282631   14.125494   11.362669
 O    8.360116   14.125494   18.404876
 O   11.484914    5.719536    1.440154
 O   18.282631   15.642051    1.440154
 O    1.562399    4.202979   18.404876
 O   11.484914    4.202979   11.362669
 O    8.360116   15.642051    8.482361
 O    8.482361    1.562399    5.719536
 O   11.362669   18.282631   14.125494
 O   18.404876    8.360116   14.125494
 O    1.440154   11.484914    5.719536
 O    1.440154   18.282631   15.642051
 O   18.404876    1.562399    4.202979
 O   11.362669   11.484914    4.202979
 O    8.482361    8.360116   15.642051
 O    5.719536    8.482361    1.562399
 O   14.125494   11.362669   18.282631
 O   14.125494   18.404876    8.360116
 O    5.719536    1.440154   11.484914
 O   15.642051    1.440154   18.282631
 O    4.202979   18.404876    1.562399
 O    4.202979   11.362669   11.484914
 O   15.642051    8.482361    8.360116
 O    0.012502    3.626282    8.049144
 O   19.832527   16.218748   11.795886
 O    9.910013   16.218748   17.971659
 O    9.935017    3.626282    1.873371
 O   19.832527   13.548797    1.873371
 O    0.012502    6.296233   17.971659
 O    9.935017    6.296233   11.795886
 O    9.910013   13.548797    8.049144
 O    8.049144    0.012502    3.626282
 O   11.795886   19.832527   16.218748
 O   17.971659    9.910013   16.218748
 O    1.873371    9.935017    3.626282
 O    1.873371   19.832527   13.548797
 O   17.971659    0.012502    6.296233
 O   11.795886    9.935017    6.296233
 O    8.049144    9.910013   13.548797
 O    3.626282    8.049144    0.012502
 O   16.218748   11.795886   19.832527
 O   16.218748   17.971659    9.910013
 O    3.626282    1.873371    9.935017
 O   13.548797    1.873371   19.832527
 O    6.296233   17.971659    0.012502
 O    6.296233   11.795886    9.935017
 O   13.548797    8.049144    9.910013
 O    1.641184    3.633228   10.094968
 O   18.203846   16.211802    9.750062
 O    8.281331   16.211802    0.172453
 O   11.563699    3.633228   19.672577
 O   18.203846   13.555743   19.672577
 O    1.641184    6.289287    0.172453
 O   11.563699    6.289287    9.750062
 O    8.281331   13.555743   10.094968
 O   10.094968    1.641184    3.633228
 O    9.750062   18.203846   16.211802
 O    0.172453    8.281331   16.211802
 O   19.672577   11.563699    3.633228
 O   19.672577   18.203846   13.555743
 O    0.172453    1.641184    6.289287
 O    9.750062   11.563699    6.289287
 O   10.094968    8.281331   13.555743
 O    3.633228   10.094968    1.641184
 O   16.211802    9.750062   18.203846
 O   16.211802    0.172453    8.281331
 O    3.633228   19.672577   11.563699
 O   13.555743   19.672577   18.203846
 O    6.289287    0.172453    1.641184
 O    6.289287    9.750062   11.563699
 O   13.555743   10.094968    8.281331
 O   19.384625    5.239088   10.076909
 O    0.460405   14.605942    9.768121
 O   10.382920   14.605942    0.154394
 O    9.462110    5.239088   19.690635
 O    0.460405   15.161603   19.690635
 O   19.384625    4.683427    0.154394
 O    9.462110    4.683427    9.768121
 O   10.382920   15.161603   10.076909
 O   10.076909   19.384625    5.239088
 O    9.768121    0.460405   14.605942
 O    0.154394   10.382920   14.605942
 O   19.690635    9.462110    5.239088
 O   19.690635    0.460405   15.161603
 O    0.154394   19.384625    4.683427
 O    9.768121    9.462110    4.683427
 O   10.076909   10.382920   15.161603
 O    5.239088   10.076909   19.384625
 O   14.605942    9.768121    0.460405
 O   14.605942    0.154394   10.382920
 O    5.239088   19.690635    9.462110
 O   15.161603   19.690635    0.460405
 O    4.683427    0.154394   19.384625
 O    4.683427    9.768121    9.462110
 O   15.161603   10.076909   10.382920
 O    1.349462    1.475676    8.656402
 O   18.495568   18.369353   11.188628
 O    8.573053   18.369353   18.578917
 O   11.271977    1.475676    1.266113
 O   18.495568   11.398191    1.266113
 O    1.349462    8.446838   18.578917
 O   11.271977    8.446838   11.188628
 O    8.573053   11.398191    8.656402
 O    8.656402    1.349462    1.475676
 O   11.188628   18.495568   18.369353
 O   18.578917    8.573053   18.369353
 O    1.266113   11.271977    1.475676
 O    1.266113   18.495568   11.398191
 O   18.578917    1.349462    8.446838
 O   11.188628   11.271977    8.446838
 O    8.656402    8.573053   11.398191
 O    1.475676    8.656402    1.349462
 O   18.369353   11.188628   18.495568
 O   18.369353   18.578917    8.573053
 O    1.475676    1.266113   11.271977
 O   11.398191    1.266113   18.495568
 O    8.446838   18.578917    1.349462
 O    8.446838   11.188628   11.271977
 O   11.398191    8.656402    8.573053
 O   -0.460405    5.239088   10.076909
 O   20.305435   14.605942    9.768121
 O    8.281331   16.211802   20.017483
 O   10.382920   14.605942   19.999424
 O    9.462110    5.239088   -0.154394
 O   11.563699    3.633228   -0.172453
 O   18.203846   13.555743   -0.172453
 O   20.305435   15.161603   -0.154394
 O   -0.460405    4.683427   19.999424
 O    1.641184    6.289287   20.017483
 O   10.076909   -0.460405    5.239088
 O    9.768121   20.305435   14.605942
 O   20.017483    8.281331   16.211802
 O   19.999424   10.382920   14.605942
 O   -0.154394    9.462110    5.239088
 O   -0.172453   11.563699    3.633228
 O   -0.172453   18.203846   13.555743
 O   -0.154394   20.305435   15.161603
 O   19.999424   -0.460405    4.683427
 O   20.017483    1.641184    6.289287
 O    5.239088   10.076909   -0.460405
 O   14.605942    9.768121   20.305435
 O   16.211802   20.017483    8.281331
 O   14.605942   19.999424   10.382920
 O    5.239088   -0.154394    9.462110
 O    3.633228   -0.172453   11.563699
 O   13.555743   -0.172453   18.203846
 O   15.161603   -0.154394   20.305435
 O    4.683427   19.999424   -0.460405
 O    6.289287   20.017483    1.641184
 O    7.668715    9.729621   20.227642
 O   12.176315   10.115409   -0.382612
 O   17.591230   20.037924   -0.382612
 O   17.055017   20.495947    2.125403
 O    2.790013   -0.650917   17.719627
 O    2.253800   -0.192894   20.227642
 O   12.176315   -0.192894    9.539903
 O   12.712528   -0.650917   12.047918
 O    7.132502   20.495947    7.797112
 O    7.668715   20.037924   10.305127
 O   20.227642    7.668715    9.729621
 O   -0.382612   12.176315   10.115409
 O   -0.382612   17.591230   20.037924
 O    2.125403   17.055017   20.495947
 O   17.719627    2.790013   -0.650917
 O   20.227642    2.253800   -0.192894
 O    9.539903   12.176315   -0.192894
 O   12.047918   12.712528   -0.650917
 O    7.797112    7.132502   20.495947
 O   10.305127    7.668715   20.037924
 O    9.729621   20.227642    7.668715
 O   10.115409   -0.382612   12.176315
 O   20.037924   -0.382612   17.591230
 O   20.495947    2.125403   17.055017
 O   -0.650917   17.719627    2.790013
 O   -0.192894   20.227642    2.253800
 O   -0.192894    9.539903   12.176315
 O   -0.650917   12.047918   12.712528
 O   20.495947    7.797112    7.132502
 O   20.037924   10.305127    7.668715
 O    8.573053   18.369353   -1.266113
 O   11.271977    1.475676   21.111143
 O   18.495568   11.398191   21.111143
 O    1.349462    8.446838   -1.266113
 O   -1.266113    8.573053   18.369353
 O   21.111143   11.271977    1.475676
 O   21.111143   18.495568   11.398191
 O   -1.266113    1.349462    8.446838
 O   18.369353   -1.266113    8.573053
 O    1.475676   21.111143   11.271977
 O   11.398191   21.111143   18.495568
 O    8.446838   -1.266113    1.349462
Si   21.207391    7.318252    8.496650
Si   38.327699   12.526778   11.348380
Si   28.405184   12.526778   18.419164
Si   31.129906    7.318252    1.425865
Si   38.327699   17.240767    1.425865
Si   21.207391    2.604263   18.419164
Si   31.129906    2.604263   11.348380
Si   28.405184   17.240767    8.496650
Si   28.341680    1.362361    7.318252
Si   31.193410   18.482669   12.526778
Si   38.264194    8.560154   12.526778
Si   21.270895   11.284876    7.318252
Si   21.270895   18.482669   17.240767
Si   38.264194    1.362361    2.604263
Si   31.193410   11.284876    2.604263
Si   28.341680    8.560154   17.240767
Si   27.163282    8.496650    1.362361
Si   32.371808   11.348380   18.482669
Si   32.371808   18.419164    8.560154
Si   27.163282    1.425865   11.284876
Si   37.085797    1.425865   18.482669
Si   22.449293   18.419164    1.362361
Si   22.449293   11.348380   11.284876
Si   37.085797    8.496650    8.560154
Si   20.535042    4.556220    9.178128
Si   39.000048   15.288809   10.666902
Si   29.077533   15.288809   19.100643
Si   30.457557    4.556220    0.744387
Si   39.000048   14.478735    0.744387
Si   20.535042    5.366295   19.100643
Si   30.457557    5.366295   10.666902
Si   29.077533   14.478735    9.178128
Si   29.023158    0.690012    4.556220
Si   30.511932   19.155018   15.288809
Si   38.945673    9.232503   15.288809
Si   20.589417   10.612527    4.556220
Si   20.589417   19.155018   14.478735
Si   38.945673    0.690012    5.366295
Si   30.511932   10.612527    5.366295
Si   29.023158    9.232503   14.478735
Si   24.401250    9.178128    0.690012
Si   35.133839   10.666902   19.155018
Si   35.133839   19.100643    9.232503
Si   24.401250    0.744387   10.612527
Si   34.323765    0.744387   19.155018
Si   25.211325   19.100643    0.690012
Si   25.211325   10.666902   10.612527
Si   34.323765    9.178128    9.232503
Si   22.978560    9.617497    9.047944
Si   36.556530   10.227533   10.797085
Si   26.634015   10.227533   18.970459
Si   32.901075    9.617497    0.874570
Si   36.556530   19.540012    0.874570
Si   22.978560    0.305018   18.970459
Si   32.901075    0.305018   10.797085
Si   26.634015   19.540012    9.047944
Si   28.892974    3.133530    9.617497
Si   30.642115   16.711500   10.227533
Si   38.815489    6.788985   10.227533
Si   20.719600   13.056045    9.617497
Si   20.719600   16.711500   19.540012
Si   38.815489    3.133530    0.305018
Si   30.642115   13.056045    0.305018
Si   28.892974    6.788985   19.540012
Si   29.462527    9.047944    3.133530
Si   30.072563   10.797085   16.711500
Si   30.072563   18.970459    6.788985
Si   29.462527    0.874570   13.056045
Si   39.385042    0.874570   16.711500
Si   20.150048   18.970459    3.133530
Si   20.150048   10.797085   13.056045
Si   39.385042    9.047944    6.788985
Si   21.873589    2.073012    9.990782
Si   37.661501   17.772018    9.854248
Si   27.738986   17.772018    0.068267
Si   31.796104    2.073012   19.776763
Si   37.661501   11.995527   19.776763
Si   21.873589    7.849503    0.068267
Si   31.796104    7.849503    9.854248
Si   27.738986   11.995527    9.990782
Si   29.835812    2.028559    2.073012
Si   29.699278   17.816471   17.772018
Si   19.913297    7.893956   17.772018
Si   39.621793   11.951074    2.073012
Si   39.621793   17.816471   11.995527
Si   19.913297    2.028559    7.849503
Si   29.699278   11.951074    7.849503
Si   29.835812    7.893956   11.995527
Si   21.918042    9.990782    2.028559
Si   37.617048    9.854248   17.816471
Si   37.617048    0.068267    7.893956
Si   21.918042   19.776763   11.951074
Si   31.840557   19.776763   17.816471
Si   27.694533    0.068267    2.028559
Si   27.694533    9.854248   11.951074
Si   31.840557    9.990782    7.893956
 O   20.227642    7.668715    9.729621
 O   39.307448   12.176315   10.115409
 O   29.384933   12.176315   19.652136
 O   30.150157    7.668715    0.192894
 O   39.307448   17.591230    0.192894
 O   20.227642    2.253800   19.652136
 O   30.150157    2.253800   10.115409
 O   29.384933   17.591230    9.729621
 O   29.574651    0.382612    7.668715
 O   29.960439   19.462418   12.176315
 O   39.497166    9.539903   12.176315
 O   20.037924   10.305127    7.668715
 O   20.037924   19.462418   17.591230
 O   39.497166    0.382612    2.253800
 O   29.960439   10.305127    2.253800
 O   29.574651    9.539903   17.591230
 O   27.513745    9.729621    0.382612
 O   32.021345   10.115409   19.462418
 O   32.021345   19.652136    9.539903
 O   27.513745    0.192894   10.305127
 O   37.436260    0.192894   19.462418
 O   22.098830   19.652136    0.382612
 O   22.098830   10.115409   10.305127
 O   37.436260    9.729621    9.539903
 O   22.605275    8.092208    8.693909
 O   36.929815   11.752822   11.151121
 O   27.007300   11.752822   18.616424
 O   32.527790    8.092208    1.228606
 O   36.929815   18.014723    1.228606
 O   22.605275    1.830307   18.616424
 O   32.527790    1.830307   11.151121
 O   27.007300   18.014723    8.693909
 O   28.538939    2.760245    8.092208
 O   30.996151   17.084785   11.752822
 O   38.461454    7.162270   11.752822
 O   21.073636   12.682760    8.092208
 O   21.073636   17.084785   18.014723
 O   38.461454    2.760245    1.830307
 O   30.996151   12.682760    1.830307
 O   28.538939    7.162270   18.014723
 O   27.937238    8.693909    2.760245
 O   31.597852   11.151121   17.084785
 O   31.597852   18.616424    7.162270
 O   27.937238    1.228606   12.682760
 O   37.859753    1.228606   17.084785
 O   21.675337   18.616424    2.760245
 O   21.675337   11.151121   12.682760
 O   37.859753    8.693909    7.162270
 O   20.495947    7.797112    7.132502
 O   39.039143   12.047918   12.712528
 O   29.116628   12.047918   17.055017
 O   30.418462    7.797112    2.790013
 O   39.039143   17.719627    2.790013
 O   20.495947    2.125403   17.055017
 O   30.418462    2.125403   12.712528
 O   29.116628   17.719627    7.132502
 O   26.977532    0.650917    7.797112
 O   32.557558   19.194113   12.047918
 O   36.900047    9.271598   12.047918
 O   22.635043   10.573432    7.797112
 O   22.635043   19.194113   17.719627
 O   36.900047    0.650917    2.125403
 O   32.557558   10.573432    2.125403
 O   26.977532    9.271598   17.719627
 O   27.642142    7.132502    0.650917
 O   31.892948   12.712528   19.194113
 O   31.892948   17.055017    9.271598
 O   27.642142    2.790013   10.573432
 O   37.564657    2.790013   19.194113
 O   21.970433   17.055017    0.650917
 O   21.970433   12.712528   10.573432
 O   37.564657    7.132502    9.271598
 O   21.407429    5.719536    8.482361
 O   38.127661   14.125494   11.362669
 O   28.205146   14.125494   18.404876
 O   31.329944    5.719536    1.440154
 O   38.127661   15.642051    1.440154
 O   21.407429    4.202979   18.404876
 O   31.329944    4.202979   11.362669
 O   28.205146   15.642051    8.482361
 O   28.327391    1.562399    5.719536
 O   31.207699   18.282631   14.125494
 O   38.249906    8.360116   14.125494
 O   21.285184   11.484914    5.719536
 O   21.285184   18.282631   15.642051
 O   38.249906    1.562399    4.202979
 O   31.207699   11.484914    4.202979
 O   28.327391    8.360116   15.642051
 O   25.564566    8.482361    1.562399
 O   33.970524   11.362669   18.282631
 O   33.970524   18.404876    8.360116
 O   25.564566    1.440154   11.484914
 O   35.487081    1.440154   18.282631
 O   24.048009   18.404876    1.562399
 O   24.048009   11.362669   11.484914
 O   35.487081    8.482361    8.360116
 O   19.857532    3.626282    8.049144
 O   39.677557   16.218748   11.795886
 O   29.755043   16.218748   17.971659
 O   29.780047    3.626282    1.873371
 O   39.677557   13.548797    1.873371
 O   19.857532    6.296233   17.971659
 O   29.780047    6.296233   11.795886
 O   29.755043   13.548797    8.049144
 O   27.894174    0.012502    3.626282
 O   31.640916   19.832527   16.218748
 O   37.816689    9.910013   16.218748
 O   21.718401    9.935017    3.626282
 O   21.718401   19.832527   13.548797
 O   37.816689    0.012502    6.296233
 O   31.640916    9.935017    6.296233
 O   27.894174    9.910013   13.548797
 O   23.471312    8.049144    0.012502
 O   36.063778   11.795886   19.832527
 O   36.063778   17.971659    9.910013
 O   23.471312    1.873371    9.935017
 O   33.393827    1.873371   19.832527
 O   26.141263   17.971659    0.012502
 O   26.141263   11.795886    9.935017
 O   33.393827    8.049144    9.910013
 O   21.486214    3.633228   10.094968
 O   38.048876   16.211802    9.750062
 O   28.126361   16.211802    0.172453
 O   31.408729    3.633228   19.672577
 O   38.048876   13.555743   19.672577
 O   21.486214    6.289287    0.172453
 O   31.408729    6.289287    9.750062
 O   28.126361   13.555743   10.094968
 O   29.939998    1.641184    3.633228
 O   29.595092   18.203846   16.211802
 O   20.017483    8.281331   16.211802
 O   39.517607   11.563699    3.633228
 O   39.517607   18.203846   13.555743
 O   20.017483    1.641184    6.289287
 O   29.595092   11.563699    6.289287
 O   29.939998    8.281331   13.555743
 O   23.478258   10.094968    1.641184
 O   36.056832    9.750062   18.203846
 O   36.056832    0.172453    8.281331
 O   23.478258   19.672577   11.563699
 O   33.400773   19.672577   18.203846
 O   26.134317    0.172453    1.641184
 O   26.134317    9.750062   11.563699
 O   33.400773   10.094968    8.281331
 O   39.229655    5.239088   10.076909
 O   20.305435   14.605942    9.768121
 O   30.227950   14.605942    0.154394
 O   29.307140    5.239088   19.690635
 O   20.305435   15.161603   19.690635
 O   39.229655    4.683427    0.154394
 O   29.307140    4.683427    9.768121
 O   30.227950   15.161603   10.076909
 O   29.921939   19.384625    5.239088
 O   29.613151    0.460405   14.605942
 O   19.999424   10.382920   14.605942
 O   39.535665    9.462110    5.239088
 O   39.535665    0.460405   15.161603
 O   19.999424   19.384625    4.683427
 O   29.613151    9.462110    4.683427
 O   29.921939   10.382920   15.161603
 O   25.084118   10.076909   19.384625
 O   34.450972    9.768121    0.460405
 O   34.450972    0.154394   10.382920
 O   25.084118   19.690635    9.462110
 O   35.006633   19.690635    0.460405
 O   24.528457    0.154394   19.384625
 O   24.528457    9.768121    9.462110
 O   35.006633   10.076909   10.382920
 O   21.194492    1.475676    8.656402
 O   38.340598   18.369353   11.188628
 O   28.418083   18.369353   18.578917
 O   31.117007    1.475676    1.266113
 O   38.340598   11.398191    1.266113
 O   21.194492    8.446838   18.578917
 O   31.117007    8.446838   11.188628
 O   28.418083   11.398191    8.656402
 O   28.501432    1.349462    1.475676
 O   31.033658   18.495568   18.369353
 O   38.423947    8.573053   18.369353
 O   21.111143   11.271977    1.475676
 O   21.111143   18.495568   11.398191
 O   38.423947    1.349462    8.446838
 O   31.033658   11.271977    8.446838
 O   28.501432    8.573053   11.398191
 O   21.320706    8.656402    1.349462
 O   38.214383   11.188628   18.495568
 O   38.214383   18.578917    8.573053
 O   21.320706    1.266113   11.271977
 O   31.243221    1.266113   18.495568
 O   28.291868   18.578917    1.349462
 O   28.291868   11.188628   11.271977
 O   31.243221    8.656402    8.573053
 O   19.384625    5.239088   10.076909
 O   40.150465   14.605942    9.768121
 O   28.126361   16.211802   20.017483
 O   30.227950   14.605942   19.999424
 O   29.307140    5.239088   -0.154394
 O   31.408729    3.633228   -0.172453
 O   38.048876   13.555743   -0.172453
 O   40.150465   15.161603   -0.154394
 O   19.384625    4.683427   19.999424
 O   21.486214    6.289287   20.017483
 O   29.921939   -0.460405    5.239088
 O   29.613151   20.305435   14.605942
 O   39.862513    8.281331   16.211802
 O   39.844454   10.382920   14.605942
 O   19.690636    9.462110    5.239088
 O   19.672577   11.563699    3.633228
 O   19.672577   18.203846   13.555743
 O   19.690636   20.305435   15.161603
 O   39.844454   -0.460405    4.683427
 O   39.862513    1.641184    6.289287
 O   25.084118   10.076909   -0.460405
 O   34.450972    9.768121   20.305435
 O   36.056832   20.017483    8.281331
 O   34.450972   19.999424   10.382920
 O   25.084118   -0.154394    9.462110
 O   23.478258   -0.172453   11.563699
 O   33.400773   -0.172453   18.203846
 O   35.006633   -0.154394   20.305435
 O   24.528457   19.999424   -0.460405
 O   26.134317   20.017483    1.641184
 O   27.513745    9.729621   20.227642
 O   32.021345   10.115409   -0.382612
 O   37.436260   20.037924   -0.382612
 O   36.900047   20.495947    2.125403
 O   22.635043   -0.650917   17.719627
 O   22.098830   -0.192894   20.227642
 O   32.021345   -0.192894    9.539903
 O   32.557558   -0.650917   12.047918
 O   26.977532   20.495947    7.797112
 O   27.513745   20.037924   10.305127
 O   40.072672    7.668715    9.729621
 O   19.462418   12.176315   10.115409
 O   19.462418   17.591230   20.037924
 O   21.970433   17.055017   20.495947
 O   37.564657    2.790013   -0.650917
 O   40.072672    2.253800   -0.192894
 O   29.384933   12.176315   -0.192894
 O   31.892948   12.712528   -0.650917
 O   27.642142    7.132502   20.495947
 O   30.150157    7.668715   20.037924
 O   29.574651   20.227642    7.668715
 O   29.960439   -0.382612   12.176315
 O   39.882954   -0.382612   17.591230
 O   40.340977    2.125403   17.055017
 O   19.194113   17.719627    2.790013
 O   19.652136   20.227642    2.253800
 O   19.652136    9.539903   12.176315
 O   19.194113   12.047918   12.712528
 O   40.340977    7.797112    7.132502
 O   39.882954   10.305127    7.668715
 O   28.418083   18.369353   -1.266113
 O   31.117007    1.475676   21.111143
 O   38.340598   11.398191   21.111143
 O   21.194492    8.446838   -1.266113
 O   18.578917    8.573053   18.369353
 O   40.956173   11.271977    1.475676
 O   40.956173   18.495568   11.398191
 O   18.578917    1.349462    8.446838
 O   38.214383   -1.266113    8.573053
 O   21.320706   21.111143   11.271977
 O   31.243221   21.111143   18.495568
 O   28.291868   -1.266113    1.349462
