656
20.09000 19.73800 26.28400 
 O   10.069108    1.379686    9.223056
 O   10.020892   18.358315    3.918944
 O   20.065892   18.358315    2.652056
 O    0.024108    1.379686   10.489945
 O   10.020892   11.248687    3.918944
 O   10.069108    8.489314    9.223056
 O    0.024108    8.489314   10.489945
 O   20.065892   11.248687    2.652056
 O    7.784875    1.466533   10.524114
 O   12.305125   18.271467    2.617886
 O    2.260125   18.271467    3.953114
 O   17.829875    1.466533    9.188887
 O   12.305125   11.335534    2.617886
 O    7.784875    8.402467   10.524114
 O   17.829875    8.402467    9.188887
 O    2.260125   11.335534    3.953114
 O    8.025955    2.696211    8.215064
 O   12.064045   17.041790    4.926936
 O    2.019045   17.041790    1.644064
 O   18.070955    2.696211   11.497936
 O   12.064045   12.565211    4.926936
 O    8.025955    7.172790    8.215064
 O   18.070955    7.172790   11.497936
 O    2.019045   12.565211    1.644064
 O    7.979748    0.067109    8.313629
 O   12.110252   19.670892    4.828371
 O    2.065252   19.670892    1.742629
 O   18.024748    0.067109   11.399371
 O   12.110252    9.936110    4.828371
 O    7.979748    9.801891    8.313629
 O   18.024748    9.801891   11.399371
 O    2.065252    9.936110    1.742629
 O    6.609610    0.759913   12.776653
 O   13.480390   18.978088    0.365348
 O    3.435390   18.978088    6.205652
 O   16.654610    0.759913    6.936348
 O   13.480390   10.628913    0.365348
 O    6.609610    9.109087   12.776653
 O   16.654610    9.109087    6.936348
 O    3.435390   10.628913    6.205652
 O    6.623673   18.859660   10.717301
 O   13.466327    0.878341    2.424699
 O    3.421327    0.878341    4.146301
 O   16.668673   18.859660    8.995699
 O   13.466327    8.990659    2.424699
 O    6.623673   10.747341   10.717301
 O   16.668673   10.747341    8.995699
 O    3.421327    8.990659    4.146301
 O    5.165139    1.308629   10.652905
 O   14.924861   18.429371    2.489095
 O    4.879861   18.429371    4.081905
 O   15.210139    1.308629    9.060095
 O   14.924861   11.177630    2.489095
 O    5.165139    8.560371   10.652905
 O   15.210139    8.560371    9.060095
 O    4.879861   11.177630    4.081905
 O    5.846190    2.558045    1.393052
 O   14.243810   17.179956   11.748948
 O    4.198810   17.179956    7.964052
 O   15.891190    2.558045    5.177948
 O   14.243810   12.427045   11.748948
 O    5.846190    7.310956    1.393052
 O   15.891190    7.310956    5.177948
 O    4.198810   12.427045    7.964052
 O    4.086306    0.898079    0.361405
 O   16.003694   18.839922   12.780595
 O    5.958694   18.839922    6.932405
 O   14.131306    0.898079    6.209595
 O   16.003694   10.767079   12.780595
 O    4.086306    8.970921    0.361405
 O   14.131306    8.970921    6.209595
 O    5.958694   10.767079    6.932405
 O    5.898424    0.019738    2.055409
 O   14.191576   19.718263   11.086591
 O    4.146576   19.718263    8.626409
 O   15.943424    0.019738    4.515591
 O   14.191576    9.888738   11.086591
 O    5.898424    9.849262    2.055409
 O   15.943424    9.849262    4.515591
 O    4.146576    9.888738    8.626409
 O    2.159675    2.496857    1.160439
 O   17.930325   17.241144   11.981562
 O    7.885325   17.241144    7.731439
 O   12.204675    2.496857    5.410561
 O   17.930325   12.365858   11.981562
 O    2.159675    7.372143    1.160439
 O   12.204675    7.372143    5.410561
 O    7.885325   12.365858    7.731439
 O    1.699614    0.730306   12.409991
 O   18.390386   19.007695    0.732009
 O    8.345386   19.007695    5.838991
 O   11.744614    0.730306    7.303010
 O   18.390386   10.599306    0.732009
 O    1.699614    9.138694   12.409991
 O   11.744614    9.138694    7.303010
 O    8.345386   10.599306    5.838991
 O    2.613709    1.541538   10.079914
 O   17.476291   18.196463    3.062086
 O    7.431291   18.196463    3.508914
 O   12.658709    1.541538    9.633086
 O   17.476291   11.410538    3.062086
 O    2.613709    8.327463   10.079914
 O   12.658709    8.327463    9.633086
 O    7.431291   11.410538    3.508914
 O    1.462552   18.926769   10.292815
 O   18.627448    0.811232    2.849186
 O    8.582448    0.811232    3.721814
 O   11.507552   18.926769    9.420186
 O   18.627448    9.057769    2.849186
 O    1.462552   10.680232   10.292815
 O   11.507552   10.680232    9.420186
 O    8.582448    9.057769    3.721814
 O    4.421809    2.591600    8.484475
 O   15.668191   17.146401    4.657525
 O    5.623191   17.146401    1.913475
 O   14.466809    2.591600   11.228525
 O   15.668191   12.460600    4.657525
 O    4.421809    7.277401    8.484475
 O   14.466809    7.277401   11.228525
 O    5.623191   12.460600    1.913475
 O    9.866199   16.872043    9.421500
 O   10.223801    2.865958    3.720500
 O    0.178801    2.865958    2.850500
 O   19.911199   16.872043   10.291500
 O   10.223801    7.003043    3.720500
 O    9.866199   12.734958    9.421500
 O   19.911199   12.734958   10.291500
 O    0.178801    7.003043    2.850500
 O    7.395129   16.404253   10.175851
 O   12.694871    3.333748    2.966149
 O    2.649871    3.333748    3.604851
 O   17.440129   16.404253    9.537150
 O   12.694871    6.535252    2.966149
 O    7.395129   13.202749   10.175851
 O   17.440129   13.202749    9.537150
 O    2.649871    6.535252    3.604851
 O    8.564367   14.803501    8.451620
 O   11.525633    4.934500    4.690380
 O    1.480633    4.934500    1.880620
 O   18.609367   14.803501   11.261380
 O    6.462953   16.996393   12.565066
 O   13.627047    2.741608    0.576934
 O    3.582047    2.741608    5.994066
 O   16.507953   16.996393    7.147934
 O   13.627047    7.127392    0.576934
 O    6.462953   12.610609   12.565066
 O   16.507953   12.610609    7.147934
 O    3.582047    7.127392    5.994066
 O    4.841690   16.939152   10.500458
 O   15.248310    2.798849    2.641542
 O    5.203310    2.798849    3.929458
 O   14.886690   16.939152    9.212542
 O   15.248310    7.070152    2.641542
 O    4.841690   12.667849   10.500458
 O   14.886690   12.667849    9.212542
 O    5.203310    7.070152    3.929458
 O    5.912487   14.803501    0.760922
 O   14.177513    4.934500   12.381078
 O    4.132513    4.934500    7.331922
 O   15.957487   14.803501    5.810078
 O    3.969784   16.408200    0.003943
 O   16.120216    3.329801   13.138058
 O    6.075216    3.329801    6.574943
 O   14.014784   16.408200    6.567057
 O   16.120216    6.539200   13.138058
 O    3.969784   13.198801    0.003943
 O   14.014784   13.198801    6.567057
 O    6.075216    6.539200    6.574943
 O    1.904532   14.803501    0.269411
 O   18.185468    4.934500   12.872589
 O    8.140468    4.934500    6.840411
 O   11.949532   14.803501    6.301589
 O    1.625281   17.112847   12.189205
 O   18.464719    2.625154    0.952795
 O    8.419719    2.625154    5.618205
 O   11.670281   17.112847    7.523795
 O   18.464719    7.243846    0.952795
 O    1.625281   12.494155   12.189205
 O   11.670281   12.494155    7.523795
 O    8.419719    7.243846    5.618205
 O    2.364593   16.520707    9.732965
 O   17.725407    3.217294    3.409035
 O    7.680407    3.217294    3.161965
 O   12.409593   16.520707    9.980035
 O   17.725407    6.651706    3.409035
 O    2.364593   13.086295    9.732965
 O   12.409593   13.086295    9.980035
 O    7.680407    6.651706    3.161965
 O    4.251044   14.803501    9.085065
 O   15.838956    4.934500    4.056935
 O    5.793956    4.934500    2.514065
 O   14.296044   14.803501   10.627936
Si    8.465926    1.403372    9.065352
Si   11.624074   18.334629    4.076648
Si    1.579074   18.334629    2.494352
Si   18.510926    1.403372   10.647649
Si   11.624074   11.272372    4.076648
Si    8.465926    8.465629    9.065352
Si   18.510926    8.465629   10.647649
Si    1.579074   11.272372    2.494352
Si    6.547331    0.663197   11.170700
Si   13.542669   19.074804    1.971300
Si    3.497669   19.074804    4.599700
Si   16.592331    0.663197    8.542300
Si   13.542669   10.532197    1.971300
Si    6.547331    9.205804   11.170700
Si   16.592331    9.205804    8.542300
Si    3.497669   10.532197    4.599700
Si    5.609128    1.057957    0.860801
Si   14.480872   18.680044   12.281199
Si    4.435872   18.680044    7.431801
Si   15.654128    1.057957    5.710199
Si   14.480872   10.926957   12.281199
Si    5.609128    8.811044    0.860801
Si   15.654128    8.811044    5.710199
Si    4.435872   10.926957    7.431801
Si    2.503214    1.014533    0.632130
Si   17.586786   18.723468   12.509870
Si    7.541786   18.723468    7.203130
Si   12.548214    1.014533    5.938870
Si   17.586786   10.883534   12.509870
Si    2.503214    8.854467    0.632130
Si   12.548214    8.854467    5.938870
Si    7.541786   10.883534    7.203130
Si    1.448489    0.710568   10.819809
Si   18.641511   19.027433    2.322191
Si    8.596511   19.027433    4.248809
Si   11.493489    0.710568    8.893192
Si   18.641511   10.579568    2.322191
Si    1.448489    9.158432   10.819809
Si   11.493489    9.158432    8.893192
Si    8.596511   10.579568    4.248809
Si    4.086306    1.356001    9.458298
Si   16.003694   18.382000    3.683703
Si    5.958694   18.382000    2.887297
Si   14.131306    1.356001   10.254703
Si   16.003694   11.225001    3.683703
Si    4.086306    8.513000    9.458298
Si   14.131306    8.513000   10.254703
Si    5.958694   11.225001    2.887297
Si    8.427755   16.331222    8.943131
Si   11.662245    3.406779    4.198869
Si    1.617245    3.406779    2.372131
Si   18.472755   16.331222   10.769869
Si   11.662245    6.462221    4.198869
Si    8.427755   13.275779    8.943131
Si   18.472755   13.275779   10.769869
Si    1.617245    6.462221    2.372131
Si    6.332368   17.300358   10.988026
Si   13.757632    2.437643    2.153974
Si    3.712632    2.437643    4.417026
Si   16.377368   17.300358    8.724974
Si   13.757632    7.431357    2.153974
Si    6.332368   12.306644   10.988026
Si   16.377368   12.306644    8.724974
Si    3.712632    7.431357    4.417026
Si    5.490597   16.339117    0.528308
Si   14.599403    3.398884   12.613692
Si    4.554403    3.398884    7.099309
Si   15.535597   16.339117    6.042692
Si   14.599403    6.470117   12.613692
Si    5.490597   13.267884    0.528308
Si   15.535597   13.267884    6.042692
Si    4.554403    6.470117    7.099309
Si    2.380665   16.341091    0.240499
Si   17.709335    3.396910   12.901502
Si    7.664335    3.396910    6.811499
Si   12.425665   16.341091    6.330501
Si   17.709335    6.472090   12.901502
Si    2.380665   13.265910    0.240499
Si   12.425665   13.265910    6.330501
Si    7.664335    6.472090    6.811499
Si    1.319913   17.357598   10.627936
Si   18.770087    2.380403    2.514065
Si    8.725087    2.380403    4.056935
Si   11.364913   17.357598    9.085065
Si   18.770087    7.488598    2.514065
Si    1.319913   12.249403   10.627936
Si   11.364913   12.249403    9.085065
Si    8.725087    7.488598    4.056935
Si    3.911523   16.358855    9.320307
Si   16.178477    3.379146    3.821694
Si    6.133477    3.379146    2.749306
Si   13.956523   16.358855   10.392694
Si   16.178477    6.489855    3.821694
Si    3.911523   13.248146    9.320307
Si   13.956523   13.248146   10.392694
Si    6.133477    6.489855    2.749306
 O   -0.024108   18.358315    2.652056
 O   20.114108    1.379686   10.489945
 O   20.114108    8.489314   10.489945
 O   -0.024108   11.248687    2.652056
 O    6.623673   -0.878341   10.717301
 O   13.466327   20.616342    2.424699
 O    3.421327   20.616342    4.146301
 O   16.668673   -0.878341    8.995699
 O    6.609610    0.759913   -0.365348
 O   13.480390   18.978088   13.507348
 O   13.480390   10.628913   13.507348
 O    6.609610    9.109087   -0.365348
 O    2.065252   -0.067109    1.742629
 O    1.699614    0.730306   -0.732009
 O   18.390386   19.007695   13.874010
 O   18.024748   19.805110   11.399371
 O    7.979748   19.805110    8.313629
 O   12.110252   -0.067109    4.828371
 O   18.390386   10.599306   13.874010
 O    1.699614    9.138694   -0.732009
 O    1.462552   -0.811232   10.292815
 O   18.627448   20.549233    2.849186
 O    8.582448   20.549233    3.721814
 O   11.507552   -0.811232    9.420186
 O    4.146576   -0.019738    8.626409
 O   15.943424   19.757739    4.515591
 O    5.898424   19.757739    2.055409
 O   14.191576   -0.019738   11.086591
 O    6.462953   16.996393   -0.576934
 O   13.627047    2.741608   13.718934
 O   13.627047    7.127392   13.718934
 O    6.462953   12.610609   -0.576934
 O    1.625281   17.112847   -0.952795
 O   18.464719    2.625154   14.094795
 O   18.464719    7.243846   14.094795
 O    1.625281   12.494155   -0.952795
 O   -0.178801   16.872043   10.291500
 O   20.268801    2.865958    2.850500
 O   20.268801    7.003043    2.850500
 O   -0.178801   12.734958   10.291500
 O   10.069108    1.379686   22.365056
 O   10.020892   18.358315   17.060944
 O   20.065892   18.358315   15.794056
 O    0.024108    1.379686   23.631945
 O   10.020892   11.248687   17.060944
 O   10.069108    8.489314   22.365056
 O    0.024108    8.489314   23.631945
 O   20.065892   11.248687   15.794056
 O    7.784875    1.466533   23.666114
 O   12.305125   18.271467   15.759886
 O    2.260125   18.271467   17.095114
 O   17.829875    1.466533   22.330887
 O   12.305125   11.335534   15.759886
 O    7.784875    8.402467   23.666114
 O   17.829875    8.402467   22.330887
 O    2.260125   11.335534   17.095114
 O    8.025955    2.696211   21.357064
 O   12.064045   17.041790   18.068936
 O    2.019045   17.041790   14.786064
 O   18.070955    2.696211   24.639936
 O   12.064045   12.565211   18.068936
 O    8.025955    7.172790   21.357064
 O   18.070955    7.172790   24.639936
 O    2.019045   12.565211   14.786064
 O    7.979748    0.067109   21.455629
 O   12.110252   19.670892   17.970371
 O    2.065252   19.670892   14.884629
 O   18.024748    0.067109   24.541371
 O   12.110252    9.936110   17.970371
 O    7.979748    9.801891   21.455629
 O   18.024748    9.801891   24.541371
 O    2.065252    9.936110   14.884629
 O    6.609610    0.759913   25.918653
 O   13.480390   18.978088   13.507348
 O    3.435390   18.978088   19.347652
 O   16.654610    0.759913   20.078348
 O   13.480390   10.628913   13.507348
 O    6.609610    9.109087   25.918653
 O   16.654610    9.109087   20.078348
 O    3.435390   10.628913   19.347652
 O    6.623673   18.859660   23.859301
 O   13.466327    0.878341   15.566699
 O    3.421327    0.878341   17.288301
 O   16.668673   18.859660   22.137699
 O   13.466327    8.990659   15.566699
 O    6.623673   10.747341   23.859301
 O   16.668673   10.747341   22.137699
 O    3.421327    8.990659   17.288301
 O    5.165139    1.308629   23.794905
 O   14.924861   18.429371   15.631095
 O    4.879861   18.429371   17.223905
 O   15.210139    1.308629   22.202095
 O   14.924861   11.177630   15.631095
 O    5.165139    8.560371   23.794905
 O   15.210139    8.560371   22.202095
 O    4.879861   11.177630   17.223905
 O    5.846190    2.558045   14.535052
 O   14.243810   17.179956   24.890948
 O    4.198810   17.179956   21.106052
 O   15.891190    2.558045   18.319948
 O   14.243810   12.427045   24.890948
 O    5.846190    7.310956   14.535052
 O   15.891190    7.310956   18.319948
 O    4.198810   12.427045   21.106052
 O    4.086306    0.898079   13.503405
 O   16.003694   18.839922   25.922595
 O    5.958694   18.839922   20.074405
 O   14.131306    0.898079   19.351595
 O   16.003694   10.767079   25.922595
 O    4.086306    8.970921   13.503405
 O   14.131306    8.970921   19.351595
 O    5.958694   10.767079   20.074405
 O    5.898424    0.019738   15.197409
 O   14.191576   19.718263   24.228591
 O    4.146576   19.718263   21.768409
 O   15.943424    0.019738   17.657591
 O   14.191576    9.888738   24.228591
 O    5.898424    9.849262   15.197409
 O   15.943424    9.849262   17.657591
 O    4.146576    9.888738   21.768409
 O    2.159675    2.496857   14.302439
 O   17.930325   17.241144   25.123562
 O    7.885325   17.241144   20.873439
 O   12.204675    2.496857   18.552561
 O   17.930325   12.365858   25.123562
 O    2.159675    7.372143   14.302439
 O   12.204675    7.372143   18.552561
 O    7.885325   12.365858   20.873439
 O    1.699614    0.730306   25.551991
 O   18.390386   19.007695   13.874009
 O    8.345386   19.007695   18.980991
 O   11.744614    0.730306   20.445010
 O   18.390386   10.599306   13.874009
 O    1.699614    9.138694   25.551991
 O   11.744614    9.138694   20.445010
 O    8.345386   10.599306   18.980991
 O    2.613709    1.541538   23.221914
 O   17.476291   18.196463   16.204086
 O    7.431291   18.196463   16.650914
 O   12.658709    1.541538   22.775086
 O   17.476291   11.410538   16.204086
 O    2.613709    8.327463   23.221914
 O   12.658709    8.327463   22.775086
 O    7.431291   11.410538   16.650914
 O    1.462552   18.926769   23.434815
 O   18.627448    0.811232   15.991186
 O    8.582448    0.811232   16.863814
 O   11.507552   18.926769   22.562186
 O   18.627448    9.057769   15.991186
 O    1.462552   10.680232   23.434815
 O   11.507552   10.680232   22.562186
 O    8.582448    9.057769   16.863814
 O    4.421809    2.591600   21.626475
 O   15.668191   17.146401   17.799525
 O    5.623191   17.146401   15.055475
 O   14.466809    2.591600   24.370525
 O   15.668191   12.460600   17.799525
 O    4.421809    7.277401   21.626475
 O   14.466809    7.277401   24.370525
 O    5.623191   12.460600   15.055475
 O    9.866199   16.872043   22.563500
 O   10.223801    2.865958   16.862500
 O    0.178801    2.865958   15.992500
 O   19.911199   16.872043   23.433500
 O   10.223801    7.003043   16.862500
 O    9.866199   12.734958   22.563500
 O   19.911199   12.734958   23.433500
 O    0.178801    7.003043   15.992500
 O    7.395129   16.404253   23.317851
 O   12.694871    3.333748   16.108149
 O    2.649871    3.333748   16.746851
 O   17.440129   16.404253   22.679150
 O   12.694871    6.535252   16.108149
 O    7.395129   13.202749   23.317851
 O   17.440129   13.202749   22.679150
 O    2.649871    6.535252   16.746851
 O    8.564367   14.803501   21.593620
 O   11.525633    4.934500   17.832380
 O    1.480633    4.934500   15.022620
 O   18.609367   14.803501   24.403380
 O    6.462953   16.996393   25.707066
 O   13.627047    2.741608   13.718934
 O    3.582047    2.741608   19.136066
 O   16.507953   16.996393   20.289934
 O   13.627047    7.127392   13.718934
 O    6.462953   12.610609   25.707066
 O   16.507953   12.610609   20.289934
 O    3.582047    7.127392   19.136066
 O    4.841690   16.939152   23.642458
 O   15.248310    2.798849   15.783542
 O    5.203310    2.798849   17.071458
 O   14.886690   16.939152   22.354542
 O   15.248310    7.070152   15.783542
 O    4.841690   12.667849   23.642458
 O   14.886690   12.667849   22.354542
 O    5.203310    7.070152   17.071458
 O    5.912487   14.803501   13.902922
 O   14.177513    4.934500   25.523078
 O    4.132513    4.934500   20.473922
 O   15.957487   14.803501   18.952078
 O    3.969784   16.408200   13.145943
 O   16.120216    3.329801   26.280058
 O    6.075216    3.329801   19.716943
 O   14.014784   16.408200   19.709057
 O   16.120216    6.539200   26.280058
 O    3.969784   13.198801   13.145943
 O   14.014784   13.198801   19.709057
 O    6.075216    6.539200   19.716943
 O    1.904532   14.803501   13.411411
 O   18.185468    4.934500   26.014589
 O    8.140468    4.934500   19.982411
 O   11.949532   14.803501   19.443589
 O    1.625281   17.112847   25.331205
 O   18.464719    2.625154   14.094795
 O    8.419719    2.625154   18.760205
 O   11.670281   17.112847   20.665795
 O   18.464719    7.243846   14.094795
 O    1.625281   12.494155   25.331205
 O   11.670281   12.494155   20.665795
 O    8.419719    7.243846   18.760205
 O    2.364593   16.520707   22.874965
 O   17.725407    3.217294   16.551035
 O    7.680407    3.217294   16.303965
 O   12.409593   16.520707   23.122035
 O   17.725407    6.651706   16.551035
 O    2.364593   13.086295   22.874965
 O   12.409593   13.086295   23.122035
 O    7.680407    6.651706   16.303965
 O    4.251044   14.803501   22.227065
 O   15.838956    4.934500   17.198935
 O    5.793956    4.934500   15.656065
 O   14.296044   14.803501   23.769936
Si    8.465926    1.403372   22.207352
Si   11.624074   18.334629   17.218648
Si    1.579074   18.334629   15.636352
Si   18.510926    1.403372   23.789649
Si   11.624074   11.272372   17.218648
Si    8.465926    8.465629   22.207352
Si   18.510926    8.465629   23.789649
Si    1.579074   11.272372   15.636352
Si    6.547331    0.663197   24.312700
Si   13.542669   19.074804   15.113300
Si    3.497669   19.074804   17.741700
Si   16.592331    0.663197   21.684300
Si   13.542669   10.532197   15.113300
Si    6.547331    9.205804   24.312700
Si   16.592331    9.205804   21.684300
Si    3.497669   10.532197   17.741700
Si    5.609128    1.057957   14.002801
Si   14.480872   18.680044   25.423199
Si    4.435872   18.680044   20.573801
Si   15.654128    1.057957   18.852199
Si   14.480872   10.926957   25.423199
Si    5.609128    8.811044   14.002801
Si   15.654128    8.811044   18.852199
Si    4.435872   10.926957   20.573801
Si    2.503214    1.014533   13.774130
Si   17.586786   18.723468   25.651870
Si    7.541786   18.723468   20.345130
Si   12.548214    1.014533   19.080870
Si   17.586786   10.883534   25.651870
Si    2.503214    8.854467   13.774130
Si   12.548214    8.854467   19.080870
Si    7.541786   10.883534   20.345130
Si    1.448489    0.710568   23.961809
Si   18.641511   19.027433   15.464191
Si    8.596511   19.027433   17.390809
Si   11.493489    0.710568   22.035192
Si   18.641511   10.579568   15.464191
Si    1.448489    9.158432   23.961809
Si   11.493489    9.158432   22.035192
Si    8.596511   10.579568   17.390809
Si    4.086306    1.356001   22.600298
Si   16.003694   18.382000   16.825703
Si    5.958694   18.382000   16.029297
Si   14.131306    1.356001   23.396703
Si   16.003694   11.225001   16.825703
Si    4.086306    8.513000   22.600298
Si   14.131306    8.513000   23.396703
Si    5.958694   11.225001   16.029297
Si    8.427755   16.331222   22.085131
Si   11.662245    3.406779   17.340869
Si    1.617245    3.406779   15.514131
Si   18.472755   16.331222   23.911869
Si   11.662245    6.462221   17.340869
Si    8.427755   13.275779   22.085131
Si   18.472755   13.275779   23.911869
Si    1.617245    6.462221   15.514131
Si    6.332368   17.300358   24.130026
Si   13.757632    2.437643   15.295974
Si    3.712632    2.437643   17.559026
Si   16.377368   17.300358   21.866974
Si   13.757632    7.431357   15.295974
Si    6.332368   12.306644   24.130026
Si   16.377368   12.306644   21.866974
Si    3.712632    7.431357   17.559026
Si    5.490597   16.339117   13.670308
Si   14.599403    3.398884   25.755692
Si    4.554403    3.398884   20.241309
Si   15.535597   16.339117   19.184692
Si   14.599403    6.470117   25.755692
Si    5.490597   13.267884   13.670308
Si   15.535597   13.267884   19.184692
Si    4.554403    6.470117   20.241309
Si    2.380665   16.341091   13.382499
Si   17.709335    3.396910   26.043502
Si    7.664335    3.396910   19.953499
Si   12.425665   16.341091   19.472501
Si   17.709335    6.472090   26.043502
Si    2.380665   13.265910   13.382499
Si   12.425665   13.265910   19.472501
Si    7.664335    6.472090   19.953499
Si    1.319913   17.357598   23.769936
Si   18.770087    2.380403   15.656065
Si    8.725087    2.380403   17.198935
Si   11.364913   17.357598   22.227065
Si   18.770087    7.488598   15.656065
Si    1.319913   12.249403   23.769936
Si   11.364913   12.249403   22.227065
Si    8.725087    7.488598   17.198935
Si    3.911523   16.358855   22.462307
Si   16.178477    3.379146   16.963694
Si    6.133477    3.379146   15.891306
Si   13.956523   16.358855   23.534694
Si   16.178477    6.489855   16.963694
Si    3.911523   13.248146   22.462307
Si   13.956523   13.248146   23.534694
Si    6.133477    6.489855   15.891306
 O   -0.024108   18.358315   15.794056
 O   20.114108    1.379686   23.631945
 O   20.114108    8.489314   23.631945
 O   -0.024108   11.248687   15.794056
 O    6.623673   -0.878341   23.859301
 O   13.466327   20.616342   15.566699
 O    3.421327   20.616342   17.288301
 O   16.668673   -0.878341   22.137699
 O    6.609610    0.759913   12.776652
 O   13.480390   18.978088   26.649348
 O   13.480390   10.628913   26.649348
 O    6.609610    9.109087   12.776652
 O    2.065252   -0.067109   14.884629
 O    1.699614    0.730306   12.409991
 O   18.390386   19.007695   27.016010
 O   18.024748   19.805110   24.541371
 O    7.979748   19.805110   21.455629
 O   12.110252   -0.067109   17.970371
 O   18.390386   10.599306   27.016010
 O    1.699614    9.138694   12.409991
 O    1.462552   -0.811232   23.434815
 O   18.627448   20.549233   15.991186
 O    8.582448   20.549233   16.863814
 O   11.507552   -0.811232   22.562186
 O    4.146576   -0.019738   21.768409
 O   15.943424   19.757739   17.657591
 O    5.898424   19.757739   15.197409
 O   14.191576   -0.019738   24.228591
 O    6.462953   16.996393   12.565066
 O   13.627047    2.741608   26.860934
 O   13.627047    7.127392   26.860934
 O    6.462953   12.610609   12.565066
 O    1.625281   17.112847   12.189205
 O   18.464719    2.625154   27.236795
 O   18.464719    7.243846   27.236795
 O    1.625281   12.494155   12.189205
 O   -0.178801   16.872043   23.433500
 O   20.268801    2.865958   15.992500
 O   20.268801    7.003043   15.992500
 O   -0.178801   12.734958   23.433500
