648
24.345 24.345 24.345
 O   21.808250    2.536749    0.000000
 O   21.808250    2.536749   24.344999
 O    2.536749   21.808250    0.000000
 O    2.536749   21.808250   24.344999
 O   20.795498    3.549501   12.172500
 O    3.549501   20.795498   12.172500
 O    8.622999   14.709249   18.258749
 O   15.722001    9.635751    6.086250
 O    9.635751   15.722001    6.086250
 O   14.709249    8.622999   18.258749
 O    0.000000   21.808250    2.536749
 O   24.344999   21.808250    2.536749
 O    0.000000    2.536749   21.808250
 O   24.344999    2.536749   21.808250
 O   12.172500   20.795498    3.549501
 O   12.172500    3.549501   20.795498
 O   18.258749    8.622999   14.709249
 O    6.086250   15.722001    9.635751
 O    6.086250    9.635751   15.722001
 O   18.258749   14.709249    8.622999
 O    2.536749    0.000000   21.808250
 O    2.536749   24.344999   21.808250
 O   21.808250    0.000000    2.536749
 O   21.808250   24.344999    2.536749
 O    3.549501   12.172500   20.795498
 O   20.795498   12.172500    3.549501
 O   14.709249   18.258749    8.622999
 O    9.635751    6.086250   15.722001
 O   15.722001    6.086250    9.635751
 O    8.622999   18.258749   14.709249
 O   21.808250   14.709249   12.172500
 O    2.536749    9.635751   12.172500
 O   20.795498   15.722001    0.000000
 O   20.795498   15.722001   24.344999
 O    3.549501    8.622999    0.000000
 O    3.549501    8.622999   24.344999
 O    8.622999    2.536749    6.086250
 O   15.722001   21.808250   18.258749
 O    9.635751    3.549501   18.258749
 O   14.709249   20.795498    6.086250
 O    0.000000    9.635751   14.709249
 O   24.344999    9.635751   14.709249
 O    0.000000   14.709249    9.635751
 O   24.344999   14.709249    9.635751
 O   12.172500    8.622999   15.722001
 O   12.172500   15.722001    8.622999
 O   18.258749   20.795498    2.536749
 O    6.086250    3.549501   21.808250
 O    6.086250   21.808250    3.549501
 O   18.258749    2.536749   20.795498
 O    2.536749   12.172500    9.635751
 O   21.808250   12.172500   14.709249
 O    3.549501    0.000000    8.622999
 O    3.549501   24.344999    8.622999
 O   20.795498    0.000000   15.722001
 O   20.795498   24.344999   15.722001
 O   14.709249    6.086250   20.795498
 O    9.635751   18.258749    3.549501
 O   15.722001   18.258749   21.808250
 O    8.622999    6.086250    2.536749
 O    9.635751    2.536749   12.172500
 O   14.709249   21.808250   12.172500
 O    8.622999    3.549501    0.000000
 O    8.622999    3.549501   24.344999
 O   15.722001   20.795498    0.000000
 O   15.722001   20.795498   24.344999
 O   20.795498   14.709249    6.086250
 O    3.549501    9.635751   18.258749
 O   21.808250   15.722001   18.258749
 O    2.536749    8.622999    6.086250
 O   12.172500   21.808250   14.709249
 O   12.172500    2.536749    9.635751
 O    0.000000   20.795498   15.722001
 O   24.344999   20.795498   15.722001
 O    0.000000    3.549501    8.622999
 O   24.344999    3.549501    8.622999
 O    6.086250    8.622999    2.536749
 O   18.258749   15.722001   21.808250
 O   18.258749    9.635751    3.549501
 O    6.086250   14.709249   20.795498
 O   14.709249    0.000000    9.635751
 O   14.709249   24.344999    9.635751
 O    9.635751    0.000000   14.709249
 O    9.635751   24.344999   14.709249
 O   15.722001   12.172500    8.622999
 O    8.622999   12.172500   15.722001
 O    2.536749   18.258749   20.795498
 O   21.808250    6.086250    3.549501
 O    3.549501    6.086250   21.808250
 O   20.795498   18.258749    2.536749
 O    9.635751   14.709249    0.000000
 O    9.635751   14.709249   24.344999
 O   14.709249    9.635751    0.000000
 O   14.709249    9.635751   24.344999
 O    8.622999   15.722001   12.172500
 O   15.722001    8.622999   12.172500
 O   20.795498    2.536749   18.258749
 O    3.549501   21.808250    6.086250
 O   21.808250    3.549501    6.086250
 O    2.536749   20.795498   18.258749
 O   12.172500    9.635751    2.536749
 O   12.172500   14.709249   21.808250
 O    0.000000    8.622999    3.549501
 O   24.344999    8.622999    3.549501
 O    0.000000   15.722001   20.795498
 O   24.344999   15.722001   20.795498
 O    6.086250   20.795498   14.709249
 O   18.258749    3.549501    9.635751
 O   18.258749   21.808250   15.722001
 O    6.086250    2.536749    8.622999
 O   14.709249   12.172500   21.808250
 O    9.635751   12.172500    2.536749
 O   15.722001    0.000000   20.795498
 O   15.722001   24.344999   20.795498
 O    8.622999    0.000000    3.549501
 O    8.622999   24.344999    3.549501
 O    2.536749    6.086250    8.622999
 O   21.808250   18.258749   15.722001
 O    3.549501   18.258749    9.635751
 O   20.795498    6.086250   14.709249
 O   23.539180    1.855089    1.855089
 O    0.805819   22.489910   22.489910
 O   19.064569    4.231161   14.027589
 O    5.280430   20.113838   10.317411
 O    6.892069   14.027589   16.403661
 O   17.452930   10.317411    7.941339
 O   11.366680   16.403661    4.231161
 O   12.978319    7.941339   20.113838
 O    1.855089   23.539180    1.855089
 O   22.489910    0.805819   22.489910
 O   14.027589   19.064569    4.231161
 O   10.317411    5.280430   20.113838
 O   16.403661    6.892069   14.027589
 O    7.941339   17.452930   10.317411
 O    4.231161   11.366680   16.403661
 O   20.113838   12.978319    7.941339
 O    1.855089    1.855089   23.539180
 O   22.489910   22.489910    0.805819
 O    4.231161   14.027589   19.064569
 O   20.113838   10.317411    5.280430
 O   14.027589   16.403661    6.892069
 O   10.317411    7.941339   17.452930
 O   16.403661    4.231161   11.366680
 O    7.941339   20.113838   12.978319
 O   20.113838    5.280430   10.317411
 O    4.231161   19.064569   14.027589
 O    7.941339   12.978319   20.113838
 O   16.403661   11.366680    4.231161
 O   10.317411   17.452930    7.941339
 O   14.027589    6.892069   16.403661
 O   17.452930    7.941339   10.317411
 O    6.892069   16.403661   14.027589
 O   12.978319   20.113838    7.941339
 O   11.366680    4.231161   16.403661
 O    5.280430   10.317411   20.113838
 O   19.064569   14.027589    4.231161
 O   20.113838    7.941339   12.978319
 O    4.231161   16.403661   11.366680
 O    7.941339   10.317411   17.452930
 O   16.403661   14.027589    6.892069
 O   10.317411   20.113838    5.280430
 O   14.027589    4.231161   19.064569
 O   23.539180   14.027589   14.027589
 O    0.805819   10.317411   10.317411
 O   19.064569   16.403661    1.855089
 O    5.280430    7.941339   22.489910
 O    6.892069    1.855089    4.231161
 O   17.452930   22.489910   20.113838
 O    1.855089   11.366680   14.027589
 O   22.489910   12.978319   10.317411
 O   16.403661   19.064569    1.855089
 O    7.941339    5.280430   22.489910
 O    4.231161   23.539180    4.231161
 O   20.113838    0.805819   20.113838
 O    1.855089   14.027589   11.366680
 O   22.489910   10.317411   12.978319
 O    4.231161    1.855089    6.892069
 O   20.113838   22.489910   17.452930
 O   16.403661   16.403661   23.539180
 O    7.941339    7.941339    0.805819
 O   20.113838   17.452930   22.489910
 O    4.231161    6.892069    1.855089
 O    7.941339    0.805819    7.941339
 O   16.403661   23.539180   16.403661
 O   17.452930   20.113838   22.489910
 O    6.892069    4.231161    1.855089
 O    5.280430   22.489910    7.941339
 O   19.064569    1.855089   16.403661
 O   20.113838   20.113838    0.805819
 O    4.231161    4.231161   23.539180
 O    7.941339   22.489910    5.280430
 O   16.403661    1.855089   19.064569
 O   11.366680    1.855089   14.027589
 O   12.978319   22.489910   10.317411
 O   23.539180   16.403661   16.403661
 O    0.805819    7.941339    7.941339
 O   14.027589   23.539180   14.027589
 O   10.317411    0.805819   10.317411
 O    1.855089   19.064569   16.403661
 O   22.489910    5.280430    7.941339
 O   14.027589    1.855089   11.366680
 O   10.317411   22.489910   12.978319
 O    1.855089   16.403661   19.064569
 O   22.489910    7.941339    5.280430
 O   22.489910   17.452930   20.113838
 O    1.855089    6.892069    4.231161
 O    0.805819   20.113838   20.113838
 O   23.539180    4.231161    4.231161
 O   22.489910   20.113838   17.452930
 O    1.855089    4.231161    6.892069
 O   11.366680   14.027589    1.855089
 O   12.978319   10.317411   22.489910
 O   14.027589   11.366680    1.855089
 O   10.317411   12.978319   22.489910
 O   14.027589   14.027589   23.539180
 O   10.317411   10.317411    0.805819
 O   24.262226    3.478900   24.262226
 O    0.082773   20.866099    0.082773
 O   18.341522    2.607349   12.089727
 O    6.003477   21.737650   12.255273
 O    6.169023   15.651400   18.341522
 O   18.175976    8.693599    6.003477
 O   12.089727   14.779849    6.169023
 O   12.255273    9.565150   18.175976
 O   24.262226   24.262226    3.478900
 O    0.082773    0.082773   20.866099
 O   12.089727   18.341522    2.607349
 O   12.255273    6.003477   21.737650
 O   18.341522    6.169023   15.651400
 O    6.003477   18.175976    8.693599
 O    6.169023   12.089727   14.779849
 O   18.175976   12.255273    9.565150
 O    3.478900   24.262226   24.262226
 O   20.866099    0.082773    0.082773
 O    2.607349   12.089727   18.341522
 O   21.737650   12.255273    6.003477
 O   15.651400   18.341522    6.169023
 O    8.693599    6.003477   18.175976
 O   14.779849    6.169023   12.089727
 O    9.565150   18.175976   12.255273
 O   21.737650    6.003477   12.255273
 O    2.607349   18.341522   12.089727
 O    9.565150   12.255273   18.175976
 O   14.779849   12.089727    6.169023
 O    8.693599   18.175976    6.003477
 O   15.651400    6.169023   18.341522
 O   18.175976    6.003477    8.693599
 O    6.169023   18.341522   15.651400
 O   12.255273   18.175976    9.565150
 O   12.089727    6.169023   14.779849
 O    6.003477   12.255273   21.737650
 O   18.341522   12.089727    2.607349
 O   18.175976    9.565150   12.255273
 O    6.169023   14.779849   12.089727
 O    6.003477    8.693599   18.175976
 O   18.341522   15.651400    6.169023
 O   12.255273   21.737650    6.003477
 O   12.089727    2.607349   18.341522
 O   24.262226   15.651400   12.089727
 O    0.082773    8.693599   12.255273
 O   18.341522   14.779849   24.262226
 O    6.003477    9.565150    0.082773
 O    6.169023    3.478900    6.169023
 O   18.175976   20.866099   18.175976
 O   24.262226   12.089727   15.651400
 O    0.082773   12.255273    8.693599
 O   18.341522   18.341522    3.478900
 O    6.003477    6.003477   20.866099
 O    6.169023   24.262226    2.607349
 O   18.175976    0.082773   21.737650
 O    3.478900   12.089727   12.089727
 O   20.866099   12.255273   12.255273
 O    2.607349   24.262226    6.169023
 O   21.737650    0.082773   18.175976
 O   14.779849   18.341522   24.262226
 O    9.565150    6.003477    0.082773
 O   21.737650   18.175976    0.082773
 O    2.607349    6.169023   24.262226
 O    9.565150    0.082773    6.003477
 O   14.779849   24.262226   18.341522
 O   18.175976   18.175976   20.866099
 O    6.169023    6.169023    3.478900
 O    6.003477    0.082773    9.565150
 O   18.341522   24.262226   14.779849
 O   18.175976   21.737650    0.082773
 O    6.169023    2.607349   24.262226
 O    6.003477   20.866099    6.003477
 O   18.341522    3.478900   18.341522
 O   12.089727    3.478900   12.089727
 O   12.255273   20.866099   12.255273
 O   24.262226   14.779849   18.341522
 O    0.082773    9.565150    6.003477
 O   12.089727   24.262226   15.651400
 O   12.255273    0.082773    8.693599
 O   24.262226   18.341522   14.779849
 O    0.082773    6.003477    9.565150
 O   15.651400   24.262226   12.089727
 O    8.693599    0.082773   12.255273
 O    3.478900   18.341522   18.341522
 O   20.866099    6.003477    6.003477
 O   20.866099   18.175976   18.175976
 O    3.478900    6.169023    6.169023
 O    0.082773   18.175976   21.737650
 O   24.262226    6.169023    2.607349
 O    0.082773   21.737650   18.175976
 O   24.262226    2.607349    6.169023
 O   12.089727   15.651400   24.262226
 O   12.255273    8.693599    0.082773
 O   12.089727   12.089727    3.478900
 O   12.255273   12.255273   20.866099
 O   15.651400   12.089727   24.262226
 O    8.693599   12.255273    0.082773
 O   22.599463    4.309065    1.777185
 O    1.745536   20.035934   22.567814
 O   20.004286    1.777185   13.949685
 O    4.340713   22.567814   10.395315
 O    7.831786   16.481565   16.481565
 O   16.513213    7.863435    7.863435
 O   10.426963   13.949685    4.309065
 O   13.918036   10.395315   20.035934
 O    1.777185   22.599463    4.309065
 O   22.567814    1.745536   20.035934
 O   13.949685   20.004286    1.777185
 O   10.395315    4.340713   22.567814
 O   16.481565    7.831786   16.481565
 O    7.863435   16.513213    7.863435
 O    4.309065   10.426963   13.949685
 O   20.035934   13.918036   10.395315
 O    4.309065    1.777185   22.599463
 O   20.035934   22.567814    1.745536
 O    1.777185   13.949685   20.004286
 O   22.567814   10.395315    4.340713
 O   16.481565   16.481565    7.831786
 O    7.863435    7.863435   16.513213
 O   13.949685    4.309065   10.426963
 O   10.395315   20.035934   13.918036
 O   22.567814    4.340713   10.395315
 O    1.777185   20.004286   13.949685
 O   20.035934    1.745536   22.567814
 O    4.309065   22.599463    1.777185
 O   10.395315   13.918036   20.035934
 O   13.949685   10.426963    4.309065
 O   13.918036   20.035934   10.395315
 O   10.426963    4.309065   13.949685
 O    1.745536   22.567814   20.035934
 O   22.599463    1.777185    4.309065
 O    4.340713   10.395315   22.567814
 O   20.004286   13.949685    1.777185
 O   20.035934   10.395315   13.918036
 O    4.309065   13.949685   10.426963
 O   10.395315   22.567814    4.340713
 O   13.949685    1.777185   20.004286
 O   22.567814   20.035934    1.745536
 O    1.777185    4.309065   22.599463
 O   22.599463   16.481565   13.949685
 O    1.745536    7.863435   10.395315
 O    7.831786    4.309065    4.309065
 O   16.513213   20.035934   20.035934
 O   10.426963    1.777185   16.481565
 O   13.918036   22.567814    7.863435
 O    1.777185   10.426963   16.481565
 O   22.567814   13.918036    7.863435
 O   13.949685    7.831786   13.949685
 O   10.395315   16.513213   10.395315
 O   16.481565   20.004286    4.309065
 O    7.863435    4.340713   20.035934
 O    1.777185    1.777185    7.831786
 O   22.567814   22.567814   16.513213
 O   16.481565    4.309065   20.004286
 O    7.863435   20.035934    4.340713
 O   13.949685   16.481565   22.599463
 O   10.395315    7.863435    1.745536
 O   22.567814   16.513213   22.567814
 O    1.777185    7.831786    1.777185
 O   10.395315    1.745536    7.863435
 O   13.949685   22.599463   16.481565
 O   13.918036    7.863435   22.567814
 O   10.426963   16.481565    1.777185
 O    1.745536   10.395315    7.863435
 O   22.599463   13.949685   16.481565
 O   10.395315   10.395315   16.513213
 O   13.949685   13.949685    7.831786
 O   22.567814    7.863435   13.918036
 O    1.777185   16.481565   10.426963
 O    7.831786    1.777185    1.777185
 O   16.513213   22.567814   22.567814
 O   20.004286   16.481565    4.309065
 O    4.340713    7.863435   20.035934
 O    4.309065    7.831786    4.309065
 O   20.035934   16.513213   20.035934
 O   16.481565   10.426963    1.777185
 O    7.863435   13.918036   22.567814
 O   16.481565    1.777185   10.426963
 O    7.863435   22.567814   13.918036
 O    4.309065   16.481565   20.004286
 O   20.035934    7.863435    4.340713
 O    7.863435    1.745536   10.395315
 O   16.481565   22.599463   13.949685
 O   16.513213   10.395315   10.395315
 O    7.831786   13.949685   13.949685
 O    7.863435   10.395315    1.745536
 O   16.481565   13.949685   22.599463
 O   20.004286    4.309065   16.481565
 O    4.340713   20.035934    7.863435
 O    4.309065   20.004286   16.481565
 O   20.035934    4.340713    7.863435
 O    4.309065    4.309065    7.831786
 O   20.035934   20.035934   16.513213
Si   23.052280    3.045559    0.886158
Si    1.292719   21.299440   23.458841
Si   19.551469    3.040690   13.058658
Si    4.793530   21.304309   11.286342
Si    7.378969   15.218059   17.372592
Si   16.966030    9.126940    6.972408
Si   10.879780   15.213190    5.200092
Si   13.465219    9.131809   19.144907
Si    0.886158   23.052280    3.045559
Si   23.458841    1.292719   21.299440
Si   13.058658   19.551469    3.040690
Si   11.286342    4.793530   21.304309
Si   17.372592    7.378969   15.218059
Si    6.972408   16.966030    9.126940
Si    5.200092   10.879780   15.213190
Si   19.144907   13.465219    9.131809
Si    3.045559    0.886158   23.052280
Si   21.299440   23.458841    1.292719
Si    3.040690   13.058658   19.551469
Si   21.304309   11.286342    4.793530
Si   15.218059   17.372592    7.378969
Si    9.126940    6.972408   16.966030
Si   15.213190    5.200092   10.879780
Si    9.131809   19.144907   13.465219
Si   21.304309    4.793530   11.286342
Si    3.040690   19.551469   13.058658
Si   21.299440    1.292719   23.458841
Si    3.045559   23.052280    0.886158
Si    9.131809   13.465219   19.144907
Si   15.213190   10.879780    5.200092
Si    9.126940   16.966030    6.972408
Si   15.218059    7.378969   17.372592
Si   16.966030    6.972408    9.126940
Si    7.378969   17.372592   15.218059
Si   13.465219   19.144907    9.131809
Si   10.879780    5.200092   15.213190
Si    1.292719   23.458841   21.299440
Si   23.052280    0.886158    3.045559
Si    4.793530   11.286342   21.304309
Si   19.551469   13.058658    3.040690
Si   19.144907    9.131809   13.465219
Si    5.200092   15.213190   10.879780
Si    6.972408    9.126940   16.966030
Si   17.372592   15.218059    7.378969
Si   11.286342   21.304309    4.793530
Si   13.058658    3.040690   19.551469
Si   23.458841   21.299440    1.292719
Si    0.886158    3.045559   23.052280
Si   23.052280   15.218059   13.058658
Si    1.292719    9.126940   11.286342
Si   19.551469   15.213190    0.886158
Si    4.793530    9.131809   23.458841
Si    7.378969    3.045559    5.200092
Si   16.966030   21.299440   19.144907
Si   10.879780    3.040690   17.372592
Si   13.465219   21.304309    6.972408
Si    0.886158   10.879780   15.218059
Si   23.458841   13.465219    9.126940
Si   13.058658    7.378969   15.213190
Si   11.286342   16.966030    9.131809
Si   17.372592   19.551469    3.045559
Si    6.972408    4.793530   21.299440
Si    5.200092   23.052280    3.040690
Si   19.144907    1.292719   21.304309
Si    3.045559   13.058658   10.879780
Si   21.299440   11.286342   13.465219
Si    3.040690    0.886158    7.378969
Si   21.304309   23.458841   16.966030
Si   15.218059    5.200092   19.551469
Si    9.126940   19.144907    4.793530
Si   15.213190   17.372592   23.052280
Si    9.131809    6.972408    1.292719
Si   21.304309   16.966030   23.458841
Si    3.040690    7.378969    0.886158
Si   21.299440   13.465219   11.286342
Si    3.045559   10.879780   13.058658
Si    9.131809    1.292719    6.972408
Si   15.213190   23.052280   17.372592
Si    9.126940    4.793530   19.144907
Si   15.218059   19.551469    5.200092
Si   16.966030   19.144907   21.299440
Si    7.378969    5.200092    3.045559
Si   13.465219    6.972408   21.304309
Si   10.879780   17.372592    3.040690
Si    1.292719   11.286342    9.126940
Si   23.052280   13.058658   15.218059
Si    4.793530   23.458841    9.131809
Si   19.551469    0.886158   15.213190
Si   19.144907   21.304309    1.292719
Si    5.200092    3.040690   23.052280
Si    6.972408   21.299440    4.793530
Si   17.372592    3.045559   19.551469
Si   11.286342    9.131809   16.966030
Si   13.058658   15.213190    7.378969
Si   23.458841    9.126940   13.465219
Si    0.886158   15.218059   10.879780
Si   10.879780    3.045559   13.058658
Si   13.465219   21.299440   11.286342
Si    7.378969    3.040690    0.886158
Si   16.966030   21.304309   23.458841
Si   19.551469   15.218059    5.200092
Si    4.793530    9.126940   19.144907
Si   23.052280   15.213190   17.372592
Si    1.292719    9.131809    6.972408
Si   13.058658   23.052280   15.218059
Si   11.286342    1.292719    9.126940
Si    0.886158   19.551469   15.213190
Si   23.458841    4.793530    9.131809
Si    5.200092    7.378969    3.045559
Si   19.144907   16.966030   21.299440
Si   17.372592   10.879780    3.040690
Si    6.972408   13.465219   21.304309
Si   15.218059    0.886158   10.879780
Si    9.126940   23.458841   13.465219
Si   15.213190   13.058658    7.378969
Si    9.131809   11.286342   16.966030
Si    3.045559   17.372592   19.551469
Si   21.299440    6.972408    4.793530
Si    3.040690    5.200092   23.052280
Si   21.304309   19.144907    1.292719
Si    9.131809    4.793530   23.458841
Si   15.213190   19.551469    0.886158
Si    9.126940    1.292719   11.286342
Si   15.218059   23.052280   13.058658
Si   21.304309   13.465219    6.972408
Si    3.040690   10.879780   17.372592
Si   21.299440   16.966030   19.144907
Si    3.045559    7.378969    5.200092
Si    4.793530    6.972408   21.299440
Si   19.551469   17.372592    3.045559
Si    1.292719   19.144907   21.304309
Si   23.052280    5.200092    3.040690
Si   13.465219   23.458841    9.126940
Si   10.879780    0.886158   15.218059
Si   16.966030   11.286342    9.131809
Si    7.378969   13.058658   15.213190
Si    6.972408    9.131809    1.292719
Si   17.372592   15.213190   23.052280
Si   19.144907    9.126940    4.793530
Si    5.200092   15.218059   19.551469
Si   23.458841   21.304309   16.966030
Si    0.886158    3.040690    7.378969
Si   11.286342   21.299440   13.465219
Si   13.058658    3.045559   10.879780
Si   10.879780   15.218059    0.886158
Si   13.465219    9.126940   23.458841
Si    7.378969   15.213190   13.058658
Si   16.966030    9.131809   11.286342
Si   19.551469    3.045559   17.372592
Si    4.793530   21.299440    6.972408
Si   23.052280    3.040690    5.200092
Si    1.292719   21.304309   19.144907
Si   13.058658   10.879780    3.045559
Si   11.286342   13.465219   21.299440
Si    0.886158    7.378969    3.040690
Si   23.458841   16.966030   21.304309
Si    5.200092   19.551469   15.218059
Si   19.144907    4.793530    9.126940
Si   17.372592   23.052280   15.213190
Si    6.972408    1.292719    9.131809
Si   15.218059   13.058658   23.052280
Si    9.126940   11.286342    1.292719
Si   15.213190    0.886158   19.551469
Si    9.131809   23.458841    4.793530
Si    3.045559    5.200092    7.378969
Si   21.299440   19.144907   16.966030
Si    3.040690   17.372592   10.879780
Si   21.304309    6.972408   13.465219
Si    9.131809   16.966030   11.286342
Si   15.213190    7.378969   13.058658
Si    9.126940   13.465219   23.458841
Si   15.218059   10.879780    0.886158
Si   21.304309    1.292719   19.144907
Si    3.040690   23.052280    5.200092
Si   21.299440    4.793530    6.972408
Si    3.045559   19.551469   17.372592
Si    4.793530   19.144907    9.126940
Si   19.551469    5.200092   15.218059
Si    1.292719    6.972408    9.131809
Si   23.052280   17.372592   15.213190
Si   13.465219   11.286342   21.299440
Si   10.879780   13.058658    3.045559
Si   16.966030   23.458841   21.304309
Si    7.378969    0.886158    3.040690
Si    6.972408   21.304309   13.465219
Si   17.372592    3.040690   10.879780
Si   19.144907   21.299440   16.966030
Si    5.200092    3.045559    7.378969
Si   23.458841    9.131809    4.793530
Si    0.886158   15.213190   19.551469
Si   11.286342    9.126940    1.292719
Si   13.058658   15.218059   23.052280
 O   24.262226    3.478900   -0.082773
 O    0.082773   20.866099   24.427772
 O   -0.082773   24.262226    3.478900
 O   24.427772    0.082773   20.866099
 O    3.478900   -0.082773   24.262226
 O   20.866099   24.427772    0.082773
 O   20.866099    0.082773   24.427772
 O    3.478900   24.262226   -0.082773
 O    0.082773   24.427772   20.866099
 O   24.262226   -0.082773    3.478900
 O   24.427772   20.866099    0.082773
 O   -0.082773    3.478900   24.262226
 O   18.341522   14.779849   -0.082773
 O    6.003477    9.565150   24.427772
 O   -0.082773   12.089727   15.651400
 O   24.427772   12.255273    8.693599
 O    2.607349   -0.082773    6.169023
 O   21.737650   24.427772   18.175976
 O   21.737650   18.175976   24.427772
 O    2.607349    6.169023   -0.082773
 O    6.003477   24.427772    9.565150
 O   18.341522   -0.082773   14.779849
 O   24.427772    8.693599   12.255273
 O   -0.082773   15.651400   12.089727
 O    6.169023    2.607349   -0.082773
 O   18.175976   21.737650   24.427772
 O   -0.082773   18.341522   14.779849
 O   24.427772    6.003477    9.565150
 O   15.651400   -0.082773   12.089727
 O    8.693599   24.427772   12.255273
 O    9.565150    6.003477   24.427772
 O   14.779849   18.341522   -0.082773
 O   12.255273   24.427772    8.693599
 O   12.089727   -0.082773   15.651400
 O   24.427772   21.737650   18.175976
 O   -0.082773    2.607349    6.169023
 O   12.089727   15.651400   -0.082773
 O   12.255273    8.693599   24.427772
 O   -0.082773    6.169023    2.607349
 O   24.427772   18.175976   21.737650
 O   14.779849   -0.082773   18.341522
 O    9.565150   24.427772    6.003477
 O    8.693599   12.255273   24.427772
 O   15.651400   12.089727   -0.082773
 O   18.175976   24.427772   21.737650
 O    6.169023   -0.082773    2.607349
 O   24.427772    9.565150    6.003477
 O   -0.082773   14.779849   18.341522
