672
29.838 29.838 14.919
 O    4.988913    1.936486    4.988913
 O    9.930086   12.982514    9.930086
 O    9.930086   12.982514    4.988913
 O    4.988913    1.936486    9.930086
 O    9.930086    1.936486    9.930086
 O    4.988913   12.982514    4.988913
 O    4.988913   12.982514    9.930086
 O    9.930086    1.936486    4.988913
 O    4.988913    4.988913    1.936486
 O    9.930086    9.930086   12.982514
 O    4.988913    9.930086   12.982514
 O    9.930086    4.988913    1.936486
 O    9.930086    9.930086    1.936486
 O    4.988913    4.988913   12.982514
 O    9.930086    4.988913   12.982514
 O    4.988913    9.930086    1.936486
 O    1.936486    4.988913    4.988913
 O   12.982514    9.930086    9.930086
 O   12.982514    4.988913    9.930086
 O    1.936486    9.930086    4.988913
 O    1.936486    9.930086    9.930086
 O   12.982514    4.988913    4.988913
 O   12.982514    9.930086    4.988913
 O    1.936486    4.988913    9.930086
 O   12.448413    9.395986   12.448413
 O    2.470586    5.523014    2.470586
 O    2.470586    5.523014   12.448413
 O   12.448413    9.395986    2.470586
 O    2.470586    9.395986    2.470586
 O   12.448413    5.523014   12.448413
 O   12.448413    5.523014    2.470586
 O    2.470586    9.395986   12.448413
 O   12.448413   12.448413    9.395986
 O    2.470586    2.470586    5.523014
 O   12.448413    2.470586    5.523014
 O    2.470586   12.448413    9.395986
 O    2.470586    2.470586    9.395986
 O   12.448413   12.448413    5.523014
 O    2.470586   12.448413    5.523014
 O   12.448413    2.470586    9.395986
 O    9.395986   12.448413   12.448413
 O    5.523014    2.470586    2.470586
 O    5.523014   12.448413    2.470586
 O    9.395986    2.470586   12.448413
 O    9.395986    2.470586    2.470586
 O    5.523014   12.448413   12.448413
 O    5.523014    2.470586   12.448413
 O    9.395986   12.448413    2.470586
 O    4.108693    1.779837    7.459500
 O   10.810307   13.139163    7.459500
 O   10.810307    1.779837    7.459500
 O    4.108693   13.139163    7.459500
 O    7.459500    4.108693    1.779837
 O    7.459500   10.810307   13.139163
 O    7.459500   10.810307    1.779837
 O    7.459500    4.108693   13.139163
 O    1.779837    7.459500    4.108693
 O   13.139163    7.459500   10.810307
 O    1.779837    7.459500   10.810307
 O   13.139163    7.459500    4.108693
 O    1.779837    4.108693    7.459500
 O   13.139163   10.810307    7.459500
 O    1.779837   10.810307    7.459500
 O   13.139163    4.108693    7.459500
 O    4.108693    7.459500   13.139163
 O   10.810307    7.459500    1.779837
 O   10.810307    7.459500   13.139163
 O    4.108693    7.459500    1.779837
 O    7.459500    1.779837   10.810307
 O    7.459500   13.139163    4.108693
 O    7.459500    1.779837    4.108693
 O    7.459500   13.139163   10.810307
 O   11.568192    9.239336    0.000000
 O   11.568192    9.239336   14.919000
 O    3.350807    5.679663    0.000000
 O    3.350807    5.679663   14.919000
 O    3.350807    9.239336    0.000000
 O    3.350807    9.239336   14.919000
 O   11.568192    5.679663    0.000000
 O   11.568192    5.679663   14.919000
 O    0.000000   11.568192    9.239336
 O   14.919000   11.568192    9.239336
 O    0.000000    3.350807    5.679663
 O   14.919000    3.350807    5.679663
 O    0.000000    3.350807    9.239336
 O   14.919000    3.350807    9.239336
 O    0.000000   11.568192    5.679663
 O   14.919000   11.568192    5.679663
 O    9.239336    0.000000   11.568192
 O    9.239336   14.919000   11.568192
 O    5.679663    0.000000    3.350807
 O    5.679663   14.919000    3.350807
 O    9.239336    0.000000    3.350807
 O    9.239336   14.919000    3.350807
 O    5.679663    0.000000   11.568192
 O    5.679663   14.919000   11.568192
 O    9.239336   11.568192    0.000000
 O    9.239336   11.568192   14.919000
 O    5.679663    3.350807    0.000000
 O    5.679663    3.350807   14.919000
 O    9.239336    3.350807    0.000000
 O    9.239336    3.350807   14.919000
 O    5.679663   11.568192    0.000000
 O    5.679663   11.568192   14.919000
 O   11.568192    0.000000    5.679663
 O   11.568192   14.919000    5.679663
 O    3.350807    0.000000    9.239336
 O    3.350807   14.919000    9.239336
 O    3.350807    0.000000    5.679663
 O    3.350807   14.919000    5.679663
 O   11.568192    0.000000    9.239336
 O   11.568192   14.919000    9.239336
 O    0.000000    9.239336    3.350807
 O   14.919000    9.239336    3.350807
 O    0.000000    5.679663   11.568192
 O   14.919000    5.679663   11.568192
 O    0.000000    9.239336   11.568192
 O   14.919000    9.239336   11.568192
 O    0.000000    5.679663    3.350807
 O   14.919000    5.679663    3.350807
Si    3.729750    1.547100    5.912400
Si   11.189250   13.371899    9.006600
Si   11.189250   13.371899    5.912400
Si    3.729750    1.547100    9.006600
Si   11.189250    1.547100    9.006600
Si    3.729750   13.371899    5.912400
Si    3.729750   13.371899    9.006600
Si   11.189250    1.547100    5.912400
Si    5.912400    3.729750    1.547100
Si    9.006600   11.189250   13.371899
Si    5.912400   11.189250   13.371899
Si    9.006600    3.729750    1.547100
Si    9.006600   11.189250    1.547100
Si    5.912400    3.729750   13.371899
Si    9.006600    3.729750   13.371899
Si    5.912400   11.189250    1.547100
Si    1.547100    5.912400    3.729750
Si   13.371899    9.006600   11.189250
Si   13.371899    5.912400   11.189250
Si    1.547100    9.006600    3.729750
Si    1.547100    9.006600   11.189250
Si   13.371899    5.912400    3.729750
Si   13.371899    9.006600    3.729750
Si    1.547100    5.912400   11.189250
Si    1.547100    3.729750    9.006600
Si   13.371899   11.189250    5.912400
Si   13.371899   11.189250    9.006600
Si    1.547100    3.729750    5.912400
Si    1.547100   11.189250    5.912400
Si   13.371899    3.729750    9.006600
Si   13.371899    3.729750    5.912400
Si    1.547100   11.189250    9.006600
Si    3.729750    5.912400   13.371899
Si   11.189250    9.006600    1.547100
Si   11.189250    5.912400    1.547100
Si    3.729750    9.006600   13.371899
Si   11.189250    9.006600   13.371899
Si    3.729750    5.912400    1.547100
Si    3.729750    9.006600    1.547100
Si   11.189250    5.912400   13.371899
Si    5.912400    1.547100   11.189250
Si    9.006600   13.371899    3.729750
Si    5.912400   13.371899    3.729750
Si    9.006600    1.547100   11.189250
Si    9.006600    1.547100    3.729750
Si    5.912400   13.371899   11.189250
Si    9.006600   13.371899   11.189250
Si    5.912400    1.547100    3.729750
 O   19.907913   16.855486    4.988913
 O   24.849086   27.901514    9.930086
 O   24.849086   27.901514    4.988913
 O   19.907913   16.855486    9.930086
 O   24.849086   16.855486    9.930086
 O   19.907913   27.901514    4.988913
 O   19.907913   27.901514    9.930086
 O   24.849086   16.855486    4.988913
 O   19.907913   19.907913    1.936486
 O   24.849086   24.849086   12.982514
 O   19.907913   24.849086   12.982514
 O   24.849086   19.907913    1.936486
 O   24.849086   24.849086    1.936486
 O   19.907913   19.907913   12.982514
 O   24.849086   19.907913   12.982514
 O   19.907913   24.849086    1.936486
 O   16.855486   19.907913    4.988913
 O   27.901514   24.849086    9.930086
 O   27.901514   19.907913    9.930086
 O   16.855486   24.849086    4.988913
 O   16.855486   24.849086    9.930086
 O   27.901514   19.907913    4.988913
 O   27.901514   24.849086    4.988913
 O   16.855486   19.907913    9.930086
 O   27.367413   24.314986   12.448413
 O   17.389586   20.442014    2.470586
 O   17.389586   20.442014   12.448413
 O   27.367413   24.314986    2.470586
 O   17.389586   24.314986    2.470586
 O   27.367413   20.442014   12.448413
 O   27.367413   20.442014    2.470586
 O   17.389586   24.314986   12.448413
 O   27.367413   27.367413    9.395986
 O   17.389586   17.389586    5.523014
 O   27.367413   17.389586    5.523014
 O   17.389586   27.367413    9.395986
 O   17.389586   17.389586    9.395986
 O   27.367413   27.367413    5.523014
 O   17.389586   27.367413    5.523014
 O   27.367413   17.389586    9.395986
 O   24.314986   27.367413   12.448413
 O   20.442014   17.389586    2.470586
 O   20.442014   27.367413    2.470586
 O   24.314986   17.389586   12.448413
 O   24.314986   17.389586    2.470586
 O   20.442014   27.367413   12.448413
 O   20.442014   17.389586   12.448413
 O   24.314986   27.367413    2.470586
 O   19.027693   16.698837    7.459500
 O   25.729307   28.058163    7.459500
 O   25.729307   16.698837    7.459500
 O   19.027693   28.058163    7.459500
 O   22.378500   19.027693    1.779837
 O   22.378500   25.729307   13.139163
 O   22.378500   25.729307    1.779837
 O   22.378500   19.027693   13.139163
 O   16.698837   22.378500    4.108693
 O   28.058163   22.378500   10.810307
 O   16.698837   22.378500   10.810307
 O   28.058163   22.378500    4.108693
 O   16.698837   19.027693    7.459500
 O   28.058163   25.729307    7.459500
 O   16.698837   25.729307    7.459500
 O   28.058163   19.027693    7.459500
 O   19.027693   22.378500   13.139163
 O   25.729307   22.378500    1.779837
 O   25.729307   22.378500   13.139163
 O   19.027693   22.378500    1.779837
 O   22.378500   16.698837   10.810307
 O   22.378500   28.058163    4.108693
 O   22.378500   16.698837    4.108693
 O   22.378500   28.058163   10.810307
 O   26.487192   24.158336    0.000000
 O   26.487192   24.158336   14.919000
 O   18.269807   20.598663    0.000000
 O   18.269807   20.598663   14.919000
 O   18.269807   24.158336    0.000000
 O   18.269807   24.158336   14.919000
 O   26.487192   20.598663    0.000000
 O   26.487192   20.598663   14.919000
 O   14.919000   26.487192    9.239336
 O   29.838000   26.487192    9.239336
 O   14.919000   18.269807    5.679663
 O   29.838000   18.269807    5.679663
 O   14.919000   18.269807    9.239336
 O   29.838000   18.269807    9.239336
 O   14.919000   26.487192    5.679663
 O   29.838000   26.487192    5.679663
 O   24.158336   14.919000   11.568192
 O   24.158336   29.838000   11.568192
 O   20.598663   14.919000    3.350807
 O   20.598663   29.838000    3.350807
 O   24.158336   14.919000    3.350807
 O   24.158336   29.838000    3.350807
 O   20.598663   14.919000   11.568192
 O   20.598663   29.838000   11.568192
 O   24.158336   26.487192    0.000000
 O   24.158336   26.487192   14.919000
 O   20.598663   18.269807    0.000000
 O   20.598663   18.269807   14.919000
 O   24.158336   18.269807    0.000000
 O   24.158336   18.269807   14.919000
 O   20.598663   26.487192    0.000000
 O   20.598663   26.487192   14.919000
 O   26.487192   14.919000    5.679663
 O   26.487192   29.838000    5.679663
 O   18.269807   14.919000    9.239336
 O   18.269807   29.838000    9.239336
 O   18.269807   14.919000    5.679663
 O   18.269807   29.838000    5.679663
 O   26.487192   14.919000    9.239336
 O   26.487192   29.838000    9.239336
 O   14.919000   24.158336    3.350807
 O   29.838000   24.158336    3.350807
 O   14.919000   20.598663   11.568192
 O   29.838000   20.598663   11.568192
 O   14.919000   24.158336   11.568192
 O   29.838000   24.158336   11.568192
 O   14.919000   20.598663    3.350807
 O   29.838000   20.598663    3.350807
Si   18.648750   16.466100    5.912400
Si   26.108250   28.290899    9.006600
Si   26.108250   28.290899    5.912400
Si   18.648750   16.466100    9.006600
Si   26.108250   16.466100    9.006600
Si   18.648750   28.290899    5.912400
Si   18.648750   28.290899    9.006600
Si   26.108250   16.466100    5.912400
Si   20.831400   18.648750    1.547100
Si   23.925600   26.108250   13.371899
Si   20.831400   26.108250   13.371899
Si   23.925600   18.648750    1.547100
Si   23.925600   26.108250    1.547100
Si   20.831400   18.648750   13.371899
Si   23.925600   18.648750   13.371899
Si   20.831400   26.108250    1.547100
Si   16.466100   20.831400    3.729750
Si   28.290899   23.925600   11.189250
Si   28.290899   20.831400   11.189250
Si   16.466100   23.925600    3.729750
Si   16.466100   23.925600   11.189250
Si   28.290899   20.831400    3.729750
Si   28.290899   23.925600    3.729750
Si   16.466100   20.831400   11.189250
Si   16.466100   18.648750    9.006600
Si   28.290899   26.108250    5.912400
Si   28.290899   26.108250    9.006600
Si   16.466100   18.648750    5.912400
Si   16.466100   26.108250    5.912400
Si   28.290899   18.648750    9.006600
Si   28.290899   18.648750    5.912400
Si   16.466100   26.108250    9.006600
Si   18.648750   20.831400   13.371899
Si   26.108250   23.925600    1.547100
Si   26.108250   20.831400    1.547100
Si   18.648750   23.925600   13.371899
Si   26.108250   23.925600   13.371899
Si   18.648750   20.831400    1.547100
Si   18.648750   23.925600    1.547100
Si   26.108250   20.831400   13.371899
Si   20.831400   16.466100   11.189250
Si   23.925600   28.290899    3.729750
Si   20.831400   28.290899    3.729750
Si   23.925600   16.466100   11.189250
Si   23.925600   16.466100    3.729750
Si   20.831400   28.290899   11.189250
Si   23.925600   28.290899   11.189250
Si   20.831400   16.466100    3.729750
 O    4.988913   16.855486    4.988913
 O    9.930086   27.901514    9.930086
 O    9.930086   27.901514    4.988913
 O    4.988913   16.855486    9.930086
 O    9.930086   16.855486    9.930086
 O    4.988913   27.901514    4.988913
 O    4.988913   27.901514    9.930086
 O    9.930086   16.855486    4.988913
 O    4.988913   19.907913    1.936486
 O    9.930086   24.849086   12.982514
 O    4.988913   24.849086   12.982514
 O    9.930086   19.907913    1.936486
 O    9.930086   24.849086    1.936486
 O    4.988913   19.907913   12.982514
 O    9.930086   19.907913   12.982514
 O    4.988913   24.849086    1.936486
 O    1.936486   19.907913    4.988913
 O   12.982514   24.849086    9.930086
 O   12.982514   19.907913    9.930086
 O    1.936486   24.849086    4.988913
 O    1.936486   24.849086    9.930086
 O   12.982514   19.907913    4.988913
 O   12.982514   24.849086    4.988913
 O    1.936486   19.907913    9.930086
 O   12.448413   24.314986   12.448413
 O    2.470586   20.442014    2.470586
 O    2.470586   20.442014   12.448413
 O   12.448413   24.314986    2.470586
 O    2.470586   24.314986    2.470586
 O   12.448413   20.442014   12.448413
 O   12.448413   20.442014    2.470586
 O    2.470586   24.314986   12.448413
 O   12.448413   27.367413    9.395986
 O    2.470586   17.389586    5.523014
 O   12.448413   17.389586    5.523014
 O    2.470586   27.367413    9.395986
 O    2.470586   17.389586    9.395986
 O   12.448413   27.367413    5.523014
 O    2.470586   27.367413    5.523014
 O   12.448413   17.389586    9.395986
 O    9.395986   27.367413   12.448413
 O    5.523014   17.389586    2.470586
 O    5.523014   27.367413    2.470586
 O    9.395986   17.389586   12.448413
 O    9.395986   17.389586    2.470586
 O    5.523014   27.367413   12.448413
 O    5.523014   17.389586   12.448413
 O    9.395986   27.367413    2.470586
 O    4.108693   16.698837    7.459500
 O   10.810307   28.058163    7.459500
 O   10.810307   16.698837    7.459500
 O    4.108693   28.058163    7.459500
 O    7.459500   19.027693    1.779837
 O    7.459500   25.729307   13.139163
 O    7.459500   25.729307    1.779837
 O    7.459500   19.027693   13.139163
 O    1.779837   22.378500    4.108693
 O   13.139163   22.378500   10.810307
 O    1.779837   22.378500   10.810307
 O   13.139163   22.378500    4.108693
 O    1.779837   19.027693    7.459500
 O   13.139163   25.729307    7.459500
 O    1.779837   25.729307    7.459500
 O   13.139163   19.027693    7.459500
 O    4.108693   22.378500   13.139163
 O   10.810307   22.378500    1.779837
 O   10.810307   22.378500   13.139163
 O    4.108693   22.378500    1.779837
 O    7.459500   16.698837   10.810307
 O    7.459500   28.058163    4.108693
 O    7.459500   16.698837    4.108693
 O    7.459500   28.058163   10.810307
 O   11.568192   24.158336    0.000000
 O   11.568192   24.158336   14.919000
 O    3.350807   20.598663    0.000000
 O    3.350807   20.598663   14.919000
 O    3.350807   24.158336    0.000000
 O    3.350807   24.158336   14.919000
 O   11.568192   20.598663    0.000000
 O   11.568192   20.598663   14.919000
 O    0.000000   26.487192    9.239336
 O   14.919000   26.487192    9.239336
 O    0.000000   18.269807    5.679663
 O   14.919000   18.269807    5.679663
 O    0.000000   18.269807    9.239336
 O   14.919000   18.269807    9.239336
 O    0.000000   26.487192    5.679663
 O   14.919000   26.487192    5.679663
 O    9.239336   14.919000   11.568192
 O    9.239336   29.838000   11.568192
 O    5.679663   14.919000    3.350807
 O    5.679663   29.838000    3.350807
 O    9.239336   14.919000    3.350807
 O    9.239336   29.838000    3.350807
 O    5.679663   14.919000   11.568192
 O    5.679663   29.838000   11.568192
 O    9.239336   26.487192    0.000000
 O    9.239336   26.487192   14.919000
 O    5.679663   18.269807    0.000000
 O    5.679663   18.269807   14.919000
 O    9.239336   18.269807    0.000000
 O    9.239336   18.269807   14.919000
 O    5.679663   26.487192    0.000000
 O    5.679663   26.487192   14.919000
 O   11.568192   14.919000    5.679663
 O   11.568192   29.838000    5.679663
 O    3.350807   14.919000    9.239336
 O    3.350807   29.838000    9.239336
 O    3.350807   14.919000    5.679663
 O    3.350807   29.838000    5.679663
 O   11.568192   14.919000    9.239336
 O   11.568192   29.838000    9.239336
 O    0.000000   24.158336    3.350807
 O   14.919000   24.158336    3.350807
 O    0.000000   20.598663   11.568192
 O   14.919000   20.598663   11.568192
 O    0.000000   24.158336   11.568192
 O   14.919000   24.158336   11.568192
 O    0.000000   20.598663    3.350807
 O   14.919000   20.598663    3.350807
Si    3.729750   16.466100    5.912400
Si   11.189250   28.290899    9.006600
Si   11.189250   28.290899    5.912400
Si    3.729750   16.466100    9.006600
Si   11.189250   16.466100    9.006600
Si    3.729750   28.290899    5.912400
Si    3.729750   28.290899    9.006600
Si   11.189250   16.466100    5.912400
Si    5.912400   18.648750    1.547100
Si    9.006600   26.108250   13.371899
Si    5.912400   26.108250   13.371899
Si    9.006600   18.648750    1.547100
Si    9.006600   26.108250    1.547100
Si    5.912400   18.648750   13.371899
Si    9.006600   18.648750   13.371899
Si    5.912400   26.108250    1.547100
Si    1.547100   20.831400    3.729750
Si   13.371899   23.925600   11.189250
Si   13.371899   20.831400   11.189250
Si    1.547100   23.925600    3.729750
Si    1.547100   23.925600   11.189250
Si   13.371899   20.831400    3.729750
Si   13.371899   23.925600    3.729750
Si    1.547100   20.831400   11.189250
Si    1.547100   18.648750    9.006600
Si   13.371899   26.108250    5.912400
Si   13.371899   26.108250    9.006600
Si    1.547100   18.648750    5.912400
Si    1.547100   26.108250    5.912400
Si   13.371899   18.648750    9.006600
Si   13.371899   18.648750    5.912400
Si    1.547100   26.108250    9.006600
Si    3.729750   20.831400   13.371899
Si   11.189250   23.925600    1.547100
Si   11.189250   20.831400    1.547100
Si    3.729750   23.925600   13.371899
Si   11.189250   23.925600   13.371899
Si    3.729750   20.831400    1.547100
Si    3.729750   23.925600    1.547100
Si   11.189250   20.831400   13.371899
Si    5.912400   16.466100   11.189250
Si    9.006600   28.290899    3.729750
Si    5.912400   28.290899    3.729750
Si    9.006600   16.466100   11.189250
Si    9.006600   16.466100    3.729750
Si    5.912400   28.290899   11.189250
Si    9.006600   28.290899   11.189250
Si    5.912400   16.466100    3.729750
 O   19.907913    1.936486    4.988913
 O   24.849086   12.982514    9.930086
 O   24.849086   12.982514    4.988913
 O   19.907913    1.936486    9.930086
 O   24.849086    1.936486    9.930086
 O   19.907913   12.982514    4.988913
 O   19.907913   12.982514    9.930086
 O   24.849086    1.936486    4.988913
 O   19.907913    4.988913    1.936486
 O   24.849086    9.930086   12.982514
 O   19.907913    9.930086   12.982514
 O   24.849086    4.988913    1.936486
 O   24.849086    9.930086    1.936486
 O   19.907913    4.988913   12.982514
 O   24.849086    4.988913   12.982514
 O   19.907913    9.930086    1.936486
 O   16.855486    4.988913    4.988913
 O   27.901514    9.930086    9.930086
 O   27.901514    4.988913    9.930086
 O   16.855486    9.930086    4.988913
 O   16.855486    9.930086    9.930086
 O   27.901514    4.988913    4.988913
 O   27.901514    9.930086    4.988913
 O   16.855486    4.988913    9.930086
 O   27.367413    9.395986   12.448413
 O   17.389586    5.523014    2.470586
 O   17.389586    5.523014   12.448413
 O   27.367413    9.395986    2.470586
 O   17.389586    9.395986    2.470586
 O   27.367413    5.523014   12.448413
 O   27.367413    5.523014    2.470586
 O   17.389586    9.395986   12.448413
 O   27.367413   12.448413    9.395986
 O   17.389586    2.470586    5.523014
 O   27.367413    2.470586    5.523014
 O   17.389586   12.448413    9.395986
 O   17.389586    2.470586    9.395986
 O   27.367413   12.448413    5.523014
 O   17.389586   12.448413    5.523014
 O   27.367413    2.470586    9.395986
 O   24.314986   12.448413   12.448413
 O   20.442014    2.470586    2.470586
 O   20.442014   12.448413    2.470586
 O   24.314986    2.470586   12.448413
 O   24.314986    2.470586    2.470586
 O   20.442014   12.448413   12.448413
 O   20.442014    2.470586   12.448413
 O   24.314986   12.448413    2.470586
 O   19.027693    1.779837    7.459500
 O   25.729307   13.139163    7.459500
 O   25.729307    1.779837    7.459500
 O   19.027693   13.139163    7.459500
 O   22.378500    4.108693    1.779837
 O   22.378500   10.810307   13.139163
 O   22.378500   10.810307    1.779837
 O   22.378500    4.108693   13.139163
 O   16.698837    7.459500    4.108693
 O   28.058163    7.459500   10.810307
 O   16.698837    7.459500   10.810307
 O   28.058163    7.459500    4.108693
 O   16.698837    4.108693    7.459500
 O   28.058163   10.810307    7.459500
 O   16.698837   10.810307    7.459500
 O   28.058163    4.108693    7.459500
 O   19.027693    7.459500   13.139163
 O   25.729307    7.459500    1.779837
 O   25.729307    7.459500   13.139163
 O   19.027693    7.459500    1.779837
 O   22.378500    1.779837   10.810307
 O   22.378500   13.139163    4.108693
 O   22.378500    1.779837    4.108693
 O   22.378500   13.139163   10.810307
 O   26.487192    9.239336    0.000000
 O   26.487192    9.239336   14.919000
 O   18.269807    5.679663    0.000000
 O   18.269807    5.679663   14.919000
 O   18.269807    9.239336    0.000000
 O   18.269807    9.239336   14.919000
 O   26.487192    5.679663    0.000000
 O   26.487192    5.679663   14.919000
 O   14.919000   11.568192    9.239336
 O   29.838000   11.568192    9.239336
 O   14.919000    3.350807    5.679663
 O   29.838000    3.350807    5.679663
 O   14.919000    3.350807    9.239336
 O   29.838000    3.350807    9.239336
 O   14.919000   11.568192    5.679663
 O   29.838000   11.568192    5.679663
 O   24.158336    0.000000   11.568192
 O   24.158336   14.919000   11.568192
 O   20.598663    0.000000    3.350807
 O   20.598663   14.919000    3.350807
 O   24.158336    0.000000    3.350807
 O   24.158336   14.919000    3.350807
 O   20.598663    0.000000   11.568192
 O   20.598663   14.919000   11.568192
 O   24.158336   11.568192    0.000000
 O   24.158336   11.568192   14.919000
 O   20.598663    3.350807    0.000000
 O   20.598663    3.350807   14.919000
 O   24.158336    3.350807    0.000000
 O   24.158336    3.350807   14.919000
 O   20.598663   11.568192    0.000000
 O   20.598663   11.568192   14.919000
 O   26.487192    0.000000    5.679663
 O   26.487192   14.919000    5.679663
 O   18.269807    0.000000    9.239336
 O   18.269807   14.919000    9.239336
 O   18.269807    0.000000    5.679663
 O   18.269807   14.919000    5.679663
 O   26.487192    0.000000    9.239336
 O   26.487192   14.919000    9.239336
 O   14.919000    9.239336    3.350807
 O   29.838000    9.239336    3.350807
 O   14.919000    5.679663   11.568192
 O   29.838000    5.679663   11.568192
 O   14.919000    9.239336   11.568192
 O   29.838000    9.239336   11.568192
 O   14.919000    5.679663    3.350807
 O   29.838000    5.679663    3.350807
Si   18.648750    1.547100    5.912400
Si   26.108250   13.371899    9.006600
Si   26.108250   13.371899    5.912400
Si   18.648750    1.547100    9.006600
Si   26.108250    1.547100    9.006600
Si   18.648750   13.371899    5.912400
Si   18.648750   13.371899    9.006600
Si   26.108250    1.547100    5.912400
Si   20.831400    3.729750    1.547100
Si   23.925600   11.189250   13.371899
Si   20.831400   11.189250   13.371899
Si   23.925600    3.729750    1.547100
Si   23.925600   11.189250    1.547100
Si   20.831400    3.729750   13.371899
Si   23.925600    3.729750   13.371899
Si   20.831400   11.189250    1.547100
Si   16.466100    5.912400    3.729750
Si   28.290899    9.006600   11.189250
Si   28.290899    5.912400   11.189250
Si   16.466100    9.006600    3.729750
Si   16.466100    9.006600   11.189250
Si   28.290899    5.912400    3.729750
Si   28.290899    9.006600    3.729750
Si   16.466100    5.912400   11.189250
Si   16.466100    3.729750    9.006600
Si   28.290899   11.189250    5.912400
Si   28.290899   11.189250    9.006600
Si   16.466100    3.729750    5.912400
Si   16.466100   11.189250    5.912400
Si   28.290899    3.729750    9.006600
Si   28.290899    3.729750    5.912400
Si   16.466100   11.189250    9.006600
Si   18.648750    5.912400   13.371899
Si   26.108250    9.006600    1.547100
Si   26.108250    5.912400    1.547100
Si   18.648750    9.006600   13.371899
Si   26.108250    9.006600   13.371899
Si   18.648750    5.912400    1.547100
Si   18.648750    9.006600    1.547100
Si   26.108250    5.912400   13.371899
Si   20.831400    1.547100   11.189250
Si   23.925600   13.371899    3.729750
Si   20.831400   13.371899    3.729750
Si   23.925600    1.547100   11.189250
Si   23.925600    1.547100    3.729750
Si   20.831400   13.371899   11.189250
Si   23.925600   13.371899   11.189250
Si   20.831400    1.547100    3.729750
